1



                                 *********************************************

                                    NUMERICAL ELECTROMAGNETICS CODE (NEC-2D)

                                 *********************************************




                                     - - - - COMMENTS - - - -


                                                                                                     
                          forw: 90, 0 ; back:-90, 0                                                  
                                                                                                     




                                 - - - STRUCTURE SPECIFICATION - - -

                                     COORDINATES MUST BE INPUT IN
                                     METERS OR BE SCALED TO METERS
                                     BEFORE STRUCTURE INPUT IS ENDED


  WIRE                                                                               NO. OF    FIRST  LAST     TAG
  NO.        X1         Y1         Z1          X2         Y2         Z2      RADIUS   SEG.     SEG.   SEG.     NO.
     1   -0.02500    0.00000   -0.06298    -0.02500    0.00000    0.06298    0.00080     69        1    69       1
     2    0.02006    0.00000    0.05958     0.02006    0.00000   -0.05958    0.00090     61       70   130       2
     3    0.06269    0.00000   -0.05636     0.06269    0.00000    0.05636    0.00090     55      131   185       3
     4    0.10302    0.00000    0.05332     0.10302    0.00000   -0.05332    0.00100     49      186   234       4
     5    0.14117    0.00000   -0.05044     0.14117    0.00000    0.05044    0.00100     43      235   277       5
     6    0.17726    0.00000    0.04772     0.17726    0.00000   -0.04772    0.00110     39      278   316       6
     7    0.21141    0.00000   -0.04514     0.21141    0.00000    0.04514    0.00110     35      317   351       7
     8    0.24370    0.00000    0.04270     0.24370    0.00000   -0.04270    0.00120     31      352   382       8
     9    0.27426    0.00000   -0.04040     0.27426    0.00000    0.04040    0.00130     27      383   409       9
    10    0.30316    0.00000    0.03821     0.30316    0.00000   -0.03821    0.00140     25      410   434      10
    11    0.33051    0.00000   -0.03615     0.33051    0.00000    0.03615    0.00140     21      435   455      11
    12    0.35637    0.00000    0.03420     0.35637    0.00000   -0.03420    0.00150     19      456   474      12
    13    0.38084    0.00000   -0.03235     0.38084    0.00000    0.03235    0.00160     17      475   491      13
    14   -0.03800    0.00000   -0.00092    -0.03800    0.00000    0.00092    0.00160      1      492   492      14
    15    0.40584    0.00000    0.00320     0.40584    0.00000   -0.00320    0.00160      1      493   493      15

   TOTAL SEGMENTS USED=  493     NO. SEG. IN A SYMMETRIC CELL=  493     SYMMETRY FLAG=  0


         - MULTIPLE WIRE JUNCTIONS -
 JUNCTION    SEGMENTS  (- FOR END 1, + FOR END 2)
  NONE




                                 - - - - SEGMENTATION DATA - - - -

                                        COORDINATES IN METERS

                         I+ AND I- INDICATE THE SEGMENTS BEFORE AND AFTER I


  SEG.   COORDINATES OF SEG. CENTER     SEG.     ORIENTATION ANGLES    WIRE    CONNECTION DATA   TAG
  NO.       X         Y         Z       LENGTH     ALPHA     BETA      RADIUS    I-   I    I+    NO.
     1  -0.02500   0.00000  -0.06207   0.00183   90.00000   0.00000   0.00080     0    1    2      1
     2  -0.02500   0.00000  -0.06024   0.00183   90.00000   0.00000   0.00080     1    2    3      1
     3  -0.02500   0.00000  -0.05842   0.00183   90.00000   0.00000   0.00080     2    3    4      1
     4  -0.02500   0.00000  -0.05659   0.00183   90.00000   0.00000   0.00080     3    4    5      1
     5  -0.02500   0.00000  -0.05477   0.00183   90.00000   0.00000   0.00080     4    5    6      1
     6  -0.02500   0.00000  -0.05294   0.00183   90.00000   0.00000   0.00080     5    6    7      1
     7  -0.02500   0.00000  -0.05112   0.00183   90.00000   0.00000   0.00080     6    7    8      1
     8  -0.02500   0.00000  -0.04929   0.00183   90.00000   0.00000   0.00080     7    8    9      1
     9  -0.02500   0.00000  -0.04746   0.00183   90.00000   0.00000   0.00080     8    9   10      1
    10  -0.02500   0.00000  -0.04564   0.00183   90.00000   0.00000   0.00080     9   10   11      1
    11  -0.02500   0.00000  -0.04381   0.00183   90.00000   0.00000   0.00080    10   11   12      1
    12  -0.02500   0.00000  -0.04199   0.00183   90.00000   0.00000   0.00080    11   12   13      1
    13  -0.02500   0.00000  -0.04016   0.00183   90.00000   0.00000   0.00080    12   13   14      1
    14  -0.02500   0.00000  -0.03834   0.00183   90.00000   0.00000   0.00080    13   14   15      1
    15  -0.02500   0.00000  -0.03651   0.00183   90.00000   0.00000   0.00080    14   15   16      1
    16  -0.02500   0.00000  -0.03469   0.00183   90.00000   0.00000   0.00080    15   16   17      1
    17  -0.02500   0.00000  -0.03286   0.00183   90.00000   0.00000   0.00080    16   17   18      1
    18  -0.02500   0.00000  -0.03103   0.00183   90.00000   0.00000   0.00080    17   18   19      1
    19  -0.02500   0.00000  -0.02921   0.00183   90.00000   0.00000   0.00080    18   19   20      1
    20  -0.02500   0.00000  -0.02738   0.00183   90.00000   0.00000   0.00080    19   20   21      1
    21  -0.02500   0.00000  -0.02556   0.00183   90.00000   0.00000   0.00080    20   21   22      1
    22  -0.02500   0.00000  -0.02373   0.00183   90.00000   0.00000   0.00080    21   22   23      1
    23  -0.02500   0.00000  -0.02191   0.00183   90.00000   0.00000   0.00080    22   23   24      1
    24  -0.02500   0.00000  -0.02008   0.00183   90.00000   0.00000   0.00080    23   24   25      1
    25  -0.02500   0.00000  -0.01826   0.00183   90.00000   0.00000   0.00080    24   25   26      1
    26  -0.02500   0.00000  -0.01643   0.00183   90.00000   0.00000   0.00080    25   26   27      1
    27  -0.02500   0.00000  -0.01460   0.00183   90.00000   0.00000   0.00080    26   27   28      1
    28  -0.02500   0.00000  -0.01278   0.00183   90.00000   0.00000   0.00080    27   28   29      1
    29  -0.02500   0.00000  -0.01095   0.00183   90.00000   0.00000   0.00080    28   29   30      1
    30  -0.02500   0.00000  -0.00913   0.00183   90.00000   0.00000   0.00080    29   30   31      1
    31  -0.02500   0.00000  -0.00730   0.00183   90.00000   0.00000   0.00080    30   31   32      1
    32  -0.02500   0.00000  -0.00548   0.00183   90.00000   0.00000   0.00080    31   32   33      1
    33  -0.02500   0.00000  -0.00365   0.00183   90.00000   0.00000   0.00080    32   33   34      1
    34  -0.02500   0.00000  -0.00183   0.00183   90.00000   0.00000   0.00080    33   34   35      1
    35  -0.02500   0.00000   0.00000   0.00183   90.00000   0.00000   0.00080    34   35   36      1
    36  -0.02500   0.00000   0.00183   0.00183   90.00000   0.00000   0.00080    35   36   37      1
    37  -0.02500   0.00000   0.00365   0.00183   90.00000   0.00000   0.00080    36   37   38      1
    38  -0.02500   0.00000   0.00548   0.00183   90.00000   0.00000   0.00080    37   38   39      1
    39  -0.02500   0.00000   0.00730   0.00183   90.00000   0.00000   0.00080    38   39   40      1
    40  -0.02500   0.00000   0.00913   0.00183   90.00000   0.00000   0.00080    39   40   41      1
    41  -0.02500   0.00000   0.01095   0.00183   90.00000   0.00000   0.00080    40   41   42      1
    42  -0.02500   0.00000   0.01278   0.00183   90.00000   0.00000   0.00080    41   42   43      1
    43  -0.02500   0.00000   0.01460   0.00183   90.00000   0.00000   0.00080    42   43   44      1
    44  -0.02500   0.00000   0.01643   0.00183   90.00000   0.00000   0.00080    43   44   45      1
    45  -0.02500   0.00000   0.01826   0.00183   90.00000   0.00000   0.00080    44   45   46      1
    46  -0.02500   0.00000   0.02008   0.00183   90.00000   0.00000   0.00080    45   46   47      1
    47  -0.02500   0.00000   0.02191   0.00183   90.00000   0.00000   0.00080    46   47   48      1
    48  -0.02500   0.00000   0.02373   0.00183   90.00000   0.00000   0.00080    47   48   49      1
    49  -0.02500   0.00000   0.02556   0.00183   90.00000   0.00000   0.00080    48   49   50      1
    50  -0.02500   0.00000   0.02738   0.00183   90.00000   0.00000   0.00080    49   50   51      1
    51  -0.02500   0.00000   0.02921   0.00183   90.00000   0.00000   0.00080    50   51   52      1
    52  -0.02500   0.00000   0.03103   0.00183   90.00000   0.00000   0.00080    51   52   53      1
    53  -0.02500   0.00000   0.03286   0.00183   90.00000   0.00000   0.00080    52   53   54      1
    54  -0.02500   0.00000   0.03469   0.00183   90.00000   0.00000   0.00080    53   54   55      1
    55  -0.02500   0.00000   0.03651   0.00183   90.00000   0.00000   0.00080    54   55   56      1
    56  -0.02500   0.00000   0.03834   0.00183   90.00000   0.00000   0.00080    55   56   57      1
    57  -0.02500   0.00000   0.04016   0.00183   90.00000   0.00000   0.00080    56   57   58      1
    58  -0.02500   0.00000   0.04199   0.00183   90.00000   0.00000   0.00080    57   58   59      1
    59  -0.02500   0.00000   0.04381   0.00183   90.00000   0.00000   0.00080    58   59   60      1
    60  -0.02500   0.00000   0.04564   0.00183   90.00000   0.00000   0.00080    59   60   61      1
    61  -0.02500   0.00000   0.04746   0.00183   90.00000   0.00000   0.00080    60   61   62      1
    62  -0.02500   0.00000   0.04929   0.00183   90.00000   0.00000   0.00080    61   62   63      1
    63  -0.02500   0.00000   0.05112   0.00183   90.00000   0.00000   0.00080    62   63   64      1
    64  -0.02500   0.00000   0.05294   0.00183   90.00000   0.00000   0.00080    63   64   65      1
    65  -0.02500   0.00000   0.05477   0.00183   90.00000   0.00000   0.00080    64   65   66      1
    66  -0.02500   0.00000   0.05659   0.00183   90.00000   0.00000   0.00080    65   66   67      1
    67  -0.02500   0.00000   0.05842   0.00183   90.00000   0.00000   0.00080    66   67   68      1
    68  -0.02500   0.00000   0.06024   0.00183   90.00000   0.00000   0.00080    67   68   69      1
    69  -0.02500   0.00000   0.06207   0.00183   90.00000   0.00000   0.00080    68   69    0      1
    70   0.02006   0.00000   0.05860   0.00195  -90.00000   0.00000   0.00090     0   70   71      2
    71   0.02006   0.00000   0.05665   0.00195  -90.00000   0.00000   0.00090    70   71   72      2
    72   0.02006   0.00000   0.05470   0.00195  -90.00000   0.00000   0.00090    71   72   73      2
    73   0.02006   0.00000   0.05274   0.00195  -90.00000   0.00000   0.00090    72   73   74      2
    74   0.02006   0.00000   0.05079   0.00195  -90.00000   0.00000   0.00090    73   74   75      2
    75   0.02006   0.00000   0.04884   0.00195  -90.00000   0.00000   0.00090    74   75   76      2
    76   0.02006   0.00000   0.04688   0.00195  -90.00000   0.00000   0.00090    75   76   77      2
    77   0.02006   0.00000   0.04493   0.00195  -90.00000   0.00000   0.00090    76   77   78      2
    78   0.02006   0.00000   0.04298   0.00195  -90.00000   0.00000   0.00090    77   78   79      2
    79   0.02006   0.00000   0.04102   0.00195  -90.00000   0.00000   0.00090    78   79   80      2
    80   0.02006   0.00000   0.03907   0.00195  -90.00000   0.00000   0.00090    79   80   81      2
    81   0.02006   0.00000   0.03712   0.00195  -90.00000   0.00000   0.00090    80   81   82      2
    82   0.02006   0.00000   0.03516   0.00195  -90.00000   0.00000   0.00090    81   82   83      2
    83   0.02006   0.00000   0.03321   0.00195  -90.00000   0.00000   0.00090    82   83   84      2
    84   0.02006   0.00000   0.03126   0.00195  -90.00000   0.00000   0.00090    83   84   85      2
    85   0.02006   0.00000   0.02930   0.00195  -90.00000   0.00000   0.00090    84   85   86      2
    86   0.02006   0.00000   0.02735   0.00195  -90.00000   0.00000   0.00090    85   86   87      2
    87   0.02006   0.00000   0.02539   0.00195  -90.00000   0.00000   0.00090    86   87   88      2
    88   0.02006   0.00000   0.02344   0.00195  -90.00000   0.00000   0.00090    87   88   89      2
    89   0.02006   0.00000   0.02149   0.00195  -90.00000   0.00000   0.00090    88   89   90      2
    90   0.02006   0.00000   0.01953   0.00195  -90.00000   0.00000   0.00090    89   90   91      2
    91   0.02006   0.00000   0.01758   0.00195  -90.00000   0.00000   0.00090    90   91   92      2
    92   0.02006   0.00000   0.01563   0.00195  -90.00000   0.00000   0.00090    91   92   93      2
    93   0.02006   0.00000   0.01367   0.00195  -90.00000   0.00000   0.00090    92   93   94      2
    94   0.02006   0.00000   0.01172   0.00195  -90.00000   0.00000   0.00090    93   94   95      2
    95   0.02006   0.00000   0.00977   0.00195  -90.00000   0.00000   0.00090    94   95   96      2
    96   0.02006   0.00000   0.00781   0.00195  -90.00000   0.00000   0.00090    95   96   97      2
    97   0.02006   0.00000   0.00586   0.00195  -90.00000   0.00000   0.00090    96   97   98      2
    98   0.02006   0.00000   0.00391   0.00195  -90.00000   0.00000   0.00090    97   98   99      2
    99   0.02006   0.00000   0.00195   0.00195  -90.00000   0.00000   0.00090    98   99  100      2
   100   0.02006   0.00000   0.00000   0.00195  -90.00000   0.00000   0.00090    99  100  101      2
   101   0.02006   0.00000  -0.00195   0.00195  -90.00000   0.00000   0.00090   100  101  102      2
   102   0.02006   0.00000  -0.00391   0.00195  -90.00000   0.00000   0.00090   101  102  103      2
   103   0.02006   0.00000  -0.00586   0.00195  -90.00000   0.00000   0.00090   102  103  104      2
   104   0.02006   0.00000  -0.00781   0.00195  -90.00000   0.00000   0.00090   103  104  105      2
   105   0.02006   0.00000  -0.00977   0.00195  -90.00000   0.00000   0.00090   104  105  106      2
   106   0.02006   0.00000  -0.01172   0.00195  -90.00000   0.00000   0.00090   105  106  107      2
   107   0.02006   0.00000  -0.01367   0.00195  -90.00000   0.00000   0.00090   106  107  108      2
   108   0.02006   0.00000  -0.01563   0.00195  -90.00000   0.00000   0.00090   107  108  109      2
   109   0.02006   0.00000  -0.01758   0.00195  -90.00000   0.00000   0.00090   108  109  110      2
   110   0.02006   0.00000  -0.01953   0.00195  -90.00000   0.00000   0.00090   109  110  111      2
   111   0.02006   0.00000  -0.02149   0.00195  -90.00000   0.00000   0.00090   110  111  112      2
   112   0.02006   0.00000  -0.02344   0.00195  -90.00000   0.00000   0.00090   111  112  113      2
   113   0.02006   0.00000  -0.02540   0.00195  -90.00000   0.00000   0.00090   112  113  114      2
   114   0.02006   0.00000  -0.02735   0.00195  -90.00000   0.00000   0.00090   113  114  115      2
   115   0.02006   0.00000  -0.02930   0.00195  -90.00000   0.00000   0.00090   114  115  116      2
   116   0.02006   0.00000  -0.03126   0.00195  -90.00000   0.00000   0.00090   115  116  117      2
   117   0.02006   0.00000  -0.03321   0.00195  -90.00000   0.00000   0.00090   116  117  118      2
   118   0.02006   0.00000  -0.03516   0.00195  -90.00000   0.00000   0.00090   117  118  119      2
   119   0.02006   0.00000  -0.03712   0.00195  -90.00000   0.00000   0.00090   118  119  120      2
   120   0.02006   0.00000  -0.03907   0.00195  -90.00000   0.00000   0.00090   119  120  121      2
   121   0.02006   0.00000  -0.04102   0.00195  -90.00000   0.00000   0.00090   120  121  122      2
   122   0.02006   0.00000  -0.04298   0.00195  -90.00000   0.00000   0.00090   121  122  123      2
   123   0.02006   0.00000  -0.04493   0.00195  -90.00000   0.00000   0.00090   122  123  124      2
   124   0.02006   0.00000  -0.04688   0.00195  -90.00000   0.00000   0.00090   123  124  125      2
   125   0.02006   0.00000  -0.04884   0.00195  -90.00000   0.00000   0.00090   124  125  126      2
   126   0.02006   0.00000  -0.05079   0.00195  -90.00000   0.00000   0.00090   125  126  127      2
   127   0.02006   0.00000  -0.05274   0.00195  -90.00000   0.00000   0.00090   126  127  128      2
   128   0.02006   0.00000  -0.05470   0.00195  -90.00000   0.00000   0.00090   127  128  129      2
   129   0.02006   0.00000  -0.05665   0.00195  -90.00000   0.00000   0.00090   128  129  130      2
   130   0.02006   0.00000  -0.05860   0.00195  -90.00000   0.00000   0.00090   129  130    0      2
   131   0.06269   0.00000  -0.05534   0.00205   90.00000   0.00000   0.00090     0  131  132      3
   132   0.06269   0.00000  -0.05329   0.00205   90.00000   0.00000   0.00090   131  132  133      3
   133   0.06269   0.00000  -0.05124   0.00205   90.00000   0.00000   0.00090   132  133  134      3
   134   0.06269   0.00000  -0.04919   0.00205   90.00000   0.00000   0.00090   133  134  135      3
   135   0.06269   0.00000  -0.04714   0.00205   90.00000   0.00000   0.00090   134  135  136      3
   136   0.06269   0.00000  -0.04509   0.00205   90.00000   0.00000   0.00090   135  136  137      3
   137   0.06269   0.00000  -0.04304   0.00205   90.00000   0.00000   0.00090   136  137  138      3
   138   0.06269   0.00000  -0.04099   0.00205   90.00000   0.00000   0.00090   137  138  139      3
   139   0.06269   0.00000  -0.03894   0.00205   90.00000   0.00000   0.00090   138  139  140      3
   140   0.06269   0.00000  -0.03689   0.00205   90.00000   0.00000   0.00090   139  140  141      3
   141   0.06269   0.00000  -0.03484   0.00205   90.00000   0.00000   0.00090   140  141  142      3
   142   0.06269   0.00000  -0.03279   0.00205   90.00000   0.00000   0.00090   141  142  143      3
   143   0.06269   0.00000  -0.03074   0.00205   90.00000   0.00000   0.00090   142  143  144      3
   144   0.06269   0.00000  -0.02869   0.00205   90.00000   0.00000   0.00090   143  144  145      3
   145   0.06269   0.00000  -0.02664   0.00205   90.00000   0.00000   0.00090   144  145  146      3
   146   0.06269   0.00000  -0.02459   0.00205   90.00000   0.00000   0.00090   145  146  147      3
   147   0.06269   0.00000  -0.02255   0.00205   90.00000   0.00000   0.00090   146  147  148      3
   148   0.06269   0.00000  -0.02050   0.00205   90.00000   0.00000   0.00090   147  148  149      3
   149   0.06269   0.00000  -0.01845   0.00205   90.00000   0.00000   0.00090   148  149  150      3
   150   0.06269   0.00000  -0.01640   0.00205   90.00000   0.00000   0.00090   149  150  151      3
   151   0.06269   0.00000  -0.01435   0.00205   90.00000   0.00000   0.00090   150  151  152      3
   152   0.06269   0.00000  -0.01230   0.00205   90.00000   0.00000   0.00090   151  152  153      3
   153   0.06269   0.00000  -0.01025   0.00205   90.00000   0.00000   0.00090   152  153  154      3
   154   0.06269   0.00000  -0.00820   0.00205   90.00000   0.00000   0.00090   153  154  155      3
   155   0.06269   0.00000  -0.00615   0.00205   90.00000   0.00000   0.00090   154  155  156      3
   156   0.06269   0.00000  -0.00410   0.00205   90.00000   0.00000   0.00090   155  156  157      3
   157   0.06269   0.00000  -0.00205   0.00205   90.00000   0.00000   0.00090   156  157  158      3
   158   0.06269   0.00000   0.00000   0.00205   90.00000   0.00000   0.00090   157  158  159      3
   159   0.06269   0.00000   0.00205   0.00205   90.00000   0.00000   0.00090   158  159  160      3
   160   0.06269   0.00000   0.00410   0.00205   90.00000   0.00000   0.00090   159  160  161      3
   161   0.06269   0.00000   0.00615   0.00205   90.00000   0.00000   0.00090   160  161  162      3
   162   0.06269   0.00000   0.00820   0.00205   90.00000   0.00000   0.00090   161  162  163      3
   163   0.06269   0.00000   0.01025   0.00205   90.00000   0.00000   0.00090   162  163  164      3
   164   0.06269   0.00000   0.01230   0.00205   90.00000   0.00000   0.00090   163  164  165      3
   165   0.06269   0.00000   0.01435   0.00205   90.00000   0.00000   0.00090   164  165  166      3
   166   0.06269   0.00000   0.01640   0.00205   90.00000   0.00000   0.00090   165  166  167      3
   167   0.06269   0.00000   0.01845   0.00205   90.00000   0.00000   0.00090   166  167  168      3
   168   0.06269   0.00000   0.02050   0.00205   90.00000   0.00000   0.00090   167  168  169      3
   169   0.06269   0.00000   0.02255   0.00205   90.00000   0.00000   0.00090   168  169  170      3
   170   0.06269   0.00000   0.02459   0.00205   90.00000   0.00000   0.00090   169  170  171      3
   171   0.06269   0.00000   0.02664   0.00205   90.00000   0.00000   0.00090   170  171  172      3
   172   0.06269   0.00000   0.02869   0.00205   90.00000   0.00000   0.00090   171  172  173      3
   173   0.06269   0.00000   0.03074   0.00205   90.00000   0.00000   0.00090   172  173  174      3
   174   0.06269   0.00000   0.03279   0.00205   90.00000   0.00000   0.00090   173  174  175      3
   175   0.06269   0.00000   0.03484   0.00205   90.00000   0.00000   0.00090   174  175  176      3
   176   0.06269   0.00000   0.03689   0.00205   90.00000   0.00000   0.00090   175  176  177      3
   177   0.06269   0.00000   0.03894   0.00205   90.00000   0.00000   0.00090   176  177  178      3
   178   0.06269   0.00000   0.04099   0.00205   90.00000   0.00000   0.00090   177  178  179      3
   179   0.06269   0.00000   0.04304   0.00205   90.00000   0.00000   0.00090   178  179  180      3
   180   0.06269   0.00000   0.04509   0.00205   90.00000   0.00000   0.00090   179  180  181      3
   181   0.06269   0.00000   0.04714   0.00205   90.00000   0.00000   0.00090   180  181  182      3
   182   0.06269   0.00000   0.04919   0.00205   90.00000   0.00000   0.00090   181  182  183      3
   183   0.06269   0.00000   0.05124   0.00205   90.00000   0.00000   0.00090   182  183  184      3
   184   0.06269   0.00000   0.05329   0.00205   90.00000   0.00000   0.00090   183  184  185      3
   185   0.06269   0.00000   0.05534   0.00205   90.00000   0.00000   0.00090   184  185    0      3
   186   0.10302   0.00000   0.05223   0.00218  -90.00000   0.00000   0.00100     0  186  187      4
   187   0.10302   0.00000   0.05006   0.00218  -90.00000   0.00000   0.00100   186  187  188      4
   188   0.10302   0.00000   0.04788   0.00218  -90.00000   0.00000   0.00100   187  188  189      4
   189   0.10302   0.00000   0.04570   0.00218  -90.00000   0.00000   0.00100   188  189  190      4
   190   0.10302   0.00000   0.04353   0.00218  -90.00000   0.00000   0.00100   189  190  191      4
   191   0.10302   0.00000   0.04135   0.00218  -90.00000   0.00000   0.00100   190  191  192      4
   192   0.10302   0.00000   0.03917   0.00218  -90.00000   0.00000   0.00100   191  192  193      4
   193   0.10302   0.00000   0.03700   0.00218  -90.00000   0.00000   0.00100   192  193  194      4
   194   0.10302   0.00000   0.03482   0.00218  -90.00000   0.00000   0.00100   193  194  195      4
   195   0.10302   0.00000   0.03264   0.00218  -90.00000   0.00000   0.00100   194  195  196      4
   196   0.10302   0.00000   0.03047   0.00218  -90.00000   0.00000   0.00100   195  196  197      4
   197   0.10302   0.00000   0.02829   0.00218  -90.00000   0.00000   0.00100   196  197  198      4
   198   0.10302   0.00000   0.02612   0.00218  -90.00000   0.00000   0.00100   197  198  199      4
   199   0.10302   0.00000   0.02394   0.00218  -90.00000   0.00000   0.00100   198  199  200      4
   200   0.10302   0.00000   0.02176   0.00218  -90.00000   0.00000   0.00100   199  200  201      4
   201   0.10302   0.00000   0.01959   0.00218  -90.00000   0.00000   0.00100   200  201  202      4
   202   0.10302   0.00000   0.01741   0.00218  -90.00000   0.00000   0.00100   201  202  203      4
   203   0.10302   0.00000   0.01523   0.00218  -90.00000   0.00000   0.00100   202  203  204      4
   204   0.10302   0.00000   0.01306   0.00218  -90.00000   0.00000   0.00100   203  204  205      4
   205   0.10302   0.00000   0.01088   0.00218  -90.00000   0.00000   0.00100   204  205  206      4
   206   0.10302   0.00000   0.00871   0.00218  -90.00000   0.00000   0.00100   205  206  207      4
   207   0.10302   0.00000   0.00653   0.00218  -90.00000   0.00000   0.00100   206  207  208      4
   208   0.10302   0.00000   0.00435   0.00218  -90.00000   0.00000   0.00100   207  208  209      4
   209   0.10302   0.00000   0.00218   0.00218  -90.00000   0.00000   0.00100   208  209  210      4
   210   0.10302   0.00000   0.00000   0.00218  -90.00000   0.00000   0.00100   209  210  211      4
   211   0.10302   0.00000  -0.00218   0.00218  -90.00000   0.00000   0.00100   210  211  212      4
   212   0.10302   0.00000  -0.00435   0.00218  -90.00000   0.00000   0.00100   211  212  213      4
   213   0.10302   0.00000  -0.00653   0.00218  -90.00000   0.00000   0.00100   212  213  214      4
   214   0.10302   0.00000  -0.00871   0.00218  -90.00000   0.00000   0.00100   213  214  215      4
   215   0.10302   0.00000  -0.01088   0.00218  -90.00000   0.00000   0.00100   214  215  216      4
   216   0.10302   0.00000  -0.01306   0.00218  -90.00000   0.00000   0.00100   215  216  217      4
   217   0.10302   0.00000  -0.01523   0.00218  -90.00000   0.00000   0.00100   216  217  218      4
   218   0.10302   0.00000  -0.01741   0.00218  -90.00000   0.00000   0.00100   217  218  219      4
   219   0.10302   0.00000  -0.01959   0.00218  -90.00000   0.00000   0.00100   218  219  220      4
   220   0.10302   0.00000  -0.02176   0.00218  -90.00000   0.00000   0.00100   219  220  221      4
   221   0.10302   0.00000  -0.02394   0.00218  -90.00000   0.00000   0.00100   220  221  222      4
   222   0.10302   0.00000  -0.02612   0.00218  -90.00000   0.00000   0.00100   221  222  223      4
   223   0.10302   0.00000  -0.02829   0.00218  -90.00000   0.00000   0.00100   222  223  224      4
   224   0.10302   0.00000  -0.03047   0.00218  -90.00000   0.00000   0.00100   223  224  225      4
   225   0.10302   0.00000  -0.03264   0.00218  -90.00000   0.00000   0.00100   224  225  226      4
   226   0.10302   0.00000  -0.03482   0.00218  -90.00000   0.00000   0.00100   225  226  227      4
   227   0.10302   0.00000  -0.03700   0.00218  -90.00000   0.00000   0.00100   226  227  228      4
   228   0.10302   0.00000  -0.03917   0.00218  -90.00000   0.00000   0.00100   227  228  229      4
   229   0.10302   0.00000  -0.04135   0.00218  -90.00000   0.00000   0.00100   228  229  230      4
   230   0.10302   0.00000  -0.04353   0.00218  -90.00000   0.00000   0.00100   229  230  231      4
   231   0.10302   0.00000  -0.04570   0.00218  -90.00000   0.00000   0.00100   230  231  232      4
   232   0.10302   0.00000  -0.04788   0.00218  -90.00000   0.00000   0.00100   231  232  233      4
   233   0.10302   0.00000  -0.05006   0.00218  -90.00000   0.00000   0.00100   232  233  234      4
   234   0.10302   0.00000  -0.05223   0.00218  -90.00000   0.00000   0.00100   233  234    0      4
   235   0.14117   0.00000  -0.04927   0.00235   90.00000   0.00000   0.00100     0  235  236      5
   236   0.14117   0.00000  -0.04692   0.00235   90.00000   0.00000   0.00100   235  236  237      5
   237   0.14117   0.00000  -0.04457   0.00235   90.00000   0.00000   0.00100   236  237  238      5
   238   0.14117   0.00000  -0.04223   0.00235   90.00000   0.00000   0.00100   237  238  239      5
   239   0.14117   0.00000  -0.03988   0.00235   90.00000   0.00000   0.00100   238  239  240      5
   240   0.14117   0.00000  -0.03754   0.00235   90.00000   0.00000   0.00100   239  240  241      5
   241   0.14117   0.00000  -0.03519   0.00235   90.00000   0.00000   0.00100   240  241  242      5
   242   0.14117   0.00000  -0.03284   0.00235   90.00000   0.00000   0.00100   241  242  243      5
   243   0.14117   0.00000  -0.03050   0.00235   90.00000   0.00000   0.00100   242  243  244      5
   244   0.14117   0.00000  -0.02815   0.00235   90.00000   0.00000   0.00100   243  244  245      5
   245   0.14117   0.00000  -0.02581   0.00235   90.00000   0.00000   0.00100   244  245  246      5
   246   0.14117   0.00000  -0.02346   0.00235   90.00000   0.00000   0.00100   245  246  247      5
   247   0.14117   0.00000  -0.02111   0.00235   90.00000   0.00000   0.00100   246  247  248      5
   248   0.14117   0.00000  -0.01877   0.00235   90.00000   0.00000   0.00100   247  248  249      5
   249   0.14117   0.00000  -0.01642   0.00235   90.00000   0.00000   0.00100   248  249  250      5
   250   0.14117   0.00000  -0.01408   0.00235   90.00000   0.00000   0.00100   249  250  251      5
   251   0.14117   0.00000  -0.01173   0.00235   90.00000   0.00000   0.00100   250  251  252      5
   252   0.14117   0.00000  -0.00938   0.00235   90.00000   0.00000   0.00100   251  252  253      5
   253   0.14117   0.00000  -0.00704   0.00235   90.00000   0.00000   0.00100   252  253  254      5
   254   0.14117   0.00000  -0.00469   0.00235   90.00000   0.00000   0.00100   253  254  255      5
   255   0.14117   0.00000  -0.00235   0.00235   90.00000   0.00000   0.00100   254  255  256      5
   256   0.14117   0.00000   0.00000   0.00235   90.00000   0.00000   0.00100   255  256  257      5
   257   0.14117   0.00000   0.00235   0.00235   90.00000   0.00000   0.00100   256  257  258      5
   258   0.14117   0.00000   0.00469   0.00235   90.00000   0.00000   0.00100   257  258  259      5
   259   0.14117   0.00000   0.00704   0.00235   90.00000   0.00000   0.00100   258  259  260      5
   260   0.14117   0.00000   0.00938   0.00235   90.00000   0.00000   0.00100   259  260  261      5
   261   0.14117   0.00000   0.01173   0.00235   90.00000   0.00000   0.00100   260  261  262      5
   262   0.14117   0.00000   0.01408   0.00235   90.00000   0.00000   0.00100   261  262  263      5
   263   0.14117   0.00000   0.01642   0.00235   90.00000   0.00000   0.00100   262  263  264      5
   264   0.14117   0.00000   0.01877   0.00235   90.00000   0.00000   0.00100   263  264  265      5
   265   0.14117   0.00000   0.02111   0.00235   90.00000   0.00000   0.00100   264  265  266      5
   266   0.14117   0.00000   0.02346   0.00235   90.00000   0.00000   0.00100   265  266  267      5
   267   0.14117   0.00000   0.02581   0.00235   90.00000   0.00000   0.00100   266  267  268      5
   268   0.14117   0.00000   0.02815   0.00235   90.00000   0.00000   0.00100   267  268  269      5
   269   0.14117   0.00000   0.03050   0.00235   90.00000   0.00000   0.00100   268  269  270      5
   270   0.14117   0.00000   0.03284   0.00235   90.00000   0.00000   0.00100   269  270  271      5
   271   0.14117   0.00000   0.03519   0.00235   90.00000   0.00000   0.00100   270  271  272      5
   272   0.14117   0.00000   0.03754   0.00235   90.00000   0.00000   0.00100   271  272  273      5
   273   0.14117   0.00000   0.03988   0.00235   90.00000   0.00000   0.00100   272  273  274      5
   274   0.14117   0.00000   0.04223   0.00235   90.00000   0.00000   0.00100   273  274  275      5
   275   0.14117   0.00000   0.04458   0.00235   90.00000   0.00000   0.00100   274  275  276      5
   276   0.14117   0.00000   0.04692   0.00235   90.00000   0.00000   0.00100   275  276  277      5
   277   0.14117   0.00000   0.04927   0.00235   90.00000   0.00000   0.00100   276  277    0      5
   278   0.17726   0.00000   0.04649   0.00245  -90.00000   0.00000   0.00110     0  278  279      6
   279   0.17726   0.00000   0.04405   0.00245  -90.00000   0.00000   0.00110   278  279  280      6
   280   0.17726   0.00000   0.04160   0.00245  -90.00000   0.00000   0.00110   279  280  281      6
   281   0.17726   0.00000   0.03915   0.00245  -90.00000   0.00000   0.00110   280  281  282      6
   282   0.17726   0.00000   0.03671   0.00245  -90.00000   0.00000   0.00110   281  282  283      6
   283   0.17726   0.00000   0.03426   0.00245  -90.00000   0.00000   0.00110   282  283  284      6
   284   0.17726   0.00000   0.03181   0.00245  -90.00000   0.00000   0.00110   283  284  285      6
   285   0.17726   0.00000   0.02936   0.00245  -90.00000   0.00000   0.00110   284  285  286      6
   286   0.17726   0.00000   0.02692   0.00245  -90.00000   0.00000   0.00110   285  286  287      6
   287   0.17726   0.00000   0.02447   0.00245  -90.00000   0.00000   0.00110   286  287  288      6
   288   0.17726   0.00000   0.02202   0.00245  -90.00000   0.00000   0.00110   287  288  289      6
   289   0.17726   0.00000   0.01958   0.00245  -90.00000   0.00000   0.00110   288  289  290      6
   290   0.17726   0.00000   0.01713   0.00245  -90.00000   0.00000   0.00110   289  290  291      6
   291   0.17726   0.00000   0.01468   0.00245  -90.00000   0.00000   0.00110   290  291  292      6
   292   0.17726   0.00000   0.01223   0.00245  -90.00000   0.00000   0.00110   291  292  293      6
   293   0.17726   0.00000   0.00979   0.00245  -90.00000   0.00000   0.00110   292  293  294      6
   294   0.17726   0.00000   0.00734   0.00245  -90.00000   0.00000   0.00110   293  294  295      6
   295   0.17726   0.00000   0.00489   0.00245  -90.00000   0.00000   0.00110   294  295  296      6
   296   0.17726   0.00000   0.00245   0.00245  -90.00000   0.00000   0.00110   295  296  297      6
   297   0.17726   0.00000   0.00000   0.00245  -90.00000   0.00000   0.00110   296  297  298      6
   298   0.17726   0.00000  -0.00245   0.00245  -90.00000   0.00000   0.00110   297  298  299      6
   299   0.17726   0.00000  -0.00489   0.00245  -90.00000   0.00000   0.00110   298  299  300      6
   300   0.17726   0.00000  -0.00734   0.00245  -90.00000   0.00000   0.00110   299  300  301      6
   301   0.17726   0.00000  -0.00979   0.00245  -90.00000   0.00000   0.00110   300  301  302      6
   302   0.17726   0.00000  -0.01224   0.00245  -90.00000   0.00000   0.00110   301  302  303      6
   303   0.17726   0.00000  -0.01468   0.00245  -90.00000   0.00000   0.00110   302  303  304      6
   304   0.17726   0.00000  -0.01713   0.00245  -90.00000   0.00000   0.00110   303  304  305      6
   305   0.17726   0.00000  -0.01958   0.00245  -90.00000   0.00000   0.00110   304  305  306      6
   306   0.17726   0.00000  -0.02202   0.00245  -90.00000   0.00000   0.00110   305  306  307      6
   307   0.17726   0.00000  -0.02447   0.00245  -90.00000   0.00000   0.00110   306  307  308      6
   308   0.17726   0.00000  -0.02692   0.00245  -90.00000   0.00000   0.00110   307  308  309      6
   309   0.17726   0.00000  -0.02936   0.00245  -90.00000   0.00000   0.00110   308  309  310      6
   310   0.17726   0.00000  -0.03181   0.00245  -90.00000   0.00000   0.00110   309  310  311      6
   311   0.17726   0.00000  -0.03426   0.00245  -90.00000   0.00000   0.00110   310  311  312      6
   312   0.17726   0.00000  -0.03671   0.00245  -90.00000   0.00000   0.00110   311  312  313      6
   313   0.17726   0.00000  -0.03915   0.00245  -90.00000   0.00000   0.00110   312  313  314      6
   314   0.17726   0.00000  -0.04160   0.00245  -90.00000   0.00000   0.00110   313  314  315      6
   315   0.17726   0.00000  -0.04405   0.00245  -90.00000   0.00000   0.00110   314  315  316      6
   316   0.17726   0.00000  -0.04649   0.00245  -90.00000   0.00000   0.00110   315  316    0      6
   317   0.21141   0.00000  -0.04385   0.00258   90.00000   0.00000   0.00110     0  317  318      7
   318   0.21141   0.00000  -0.04127   0.00258   90.00000   0.00000   0.00110   317  318  319      7
   319   0.21141   0.00000  -0.03869   0.00258   90.00000   0.00000   0.00110   318  319  320      7
   320   0.21141   0.00000  -0.03611   0.00258   90.00000   0.00000   0.00110   319  320  321      7
   321   0.21141   0.00000  -0.03353   0.00258   90.00000   0.00000   0.00110   320  321  322      7
   322   0.21141   0.00000  -0.03095   0.00258   90.00000   0.00000   0.00110   321  322  323      7
   323   0.21141   0.00000  -0.02837   0.00258   90.00000   0.00000   0.00110   322  323  324      7
   324   0.21141   0.00000  -0.02579   0.00258   90.00000   0.00000   0.00110   323  324  325      7
   325   0.21141   0.00000  -0.02321   0.00258   90.00000   0.00000   0.00110   324  325  326      7
   326   0.21141   0.00000  -0.02064   0.00258   90.00000   0.00000   0.00110   325  326  327      7
   327   0.21141   0.00000  -0.01806   0.00258   90.00000   0.00000   0.00110   326  327  328      7
   328   0.21141   0.00000  -0.01548   0.00258   90.00000   0.00000   0.00110   327  328  329      7
   329   0.21141   0.00000  -0.01290   0.00258   90.00000   0.00000   0.00110   328  329  330      7
   330   0.21141   0.00000  -0.01032   0.00258   90.00000   0.00000   0.00110   329  330  331      7
   331   0.21141   0.00000  -0.00774   0.00258   90.00000   0.00000   0.00110   330  331  332      7
   332   0.21141   0.00000  -0.00516   0.00258   90.00000   0.00000   0.00110   331  332  333      7
   333   0.21141   0.00000  -0.00258   0.00258   90.00000   0.00000   0.00110   332  333  334      7
   334   0.21141   0.00000   0.00000   0.00258   90.00000   0.00000   0.00110   333  334  335      7
   335   0.21141   0.00000   0.00258   0.00258   90.00000   0.00000   0.00110   334  335  336      7
   336   0.21141   0.00000   0.00516   0.00258   90.00000   0.00000   0.00110   335  336  337      7
   337   0.21141   0.00000   0.00774   0.00258   90.00000   0.00000   0.00110   336  337  338      7
   338   0.21141   0.00000   0.01032   0.00258   90.00000   0.00000   0.00110   337  338  339      7
   339   0.21141   0.00000   0.01290   0.00258   90.00000   0.00000   0.00110   338  339  340      7
   340   0.21141   0.00000   0.01548   0.00258   90.00000   0.00000   0.00110   339  340  341      7
   341   0.21141   0.00000   0.01806   0.00258   90.00000   0.00000   0.00110   340  341  342      7
   342   0.21141   0.00000   0.02064   0.00258   90.00000   0.00000   0.00110   341  342  343      7
   343   0.21141   0.00000   0.02321   0.00258   90.00000   0.00000   0.00110   342  343  344      7
   344   0.21141   0.00000   0.02579   0.00258   90.00000   0.00000   0.00110   343  344  345      7
   345   0.21141   0.00000   0.02837   0.00258   90.00000   0.00000   0.00110   344  345  346      7
   346   0.21141   0.00000   0.03095   0.00258   90.00000   0.00000   0.00110   345  346  347      7
   347   0.21141   0.00000   0.03353   0.00258   90.00000   0.00000   0.00110   346  347  348      7
   348   0.21141   0.00000   0.03611   0.00258   90.00000   0.00000   0.00110   347  348  349      7
   349   0.21141   0.00000   0.03869   0.00258   90.00000   0.00000   0.00110   348  349  350      7
   350   0.21141   0.00000   0.04127   0.00258   90.00000   0.00000   0.00110   349  350  351      7
   351   0.21141   0.00000   0.04385   0.00258   90.00000   0.00000   0.00110   350  351    0      7
   352   0.24370   0.00000   0.04132   0.00275  -90.00000   0.00000   0.00120     0  352  353      8
   353   0.24370   0.00000   0.03857   0.00275  -90.00000   0.00000   0.00120   352  353  354      8
   354   0.24370   0.00000   0.03581   0.00275  -90.00000   0.00000   0.00120   353  354  355      8
   355   0.24370   0.00000   0.03306   0.00275  -90.00000   0.00000   0.00120   354  355  356      8
   356   0.24370   0.00000   0.03030   0.00275  -90.00000   0.00000   0.00120   355  356  357      8
   357   0.24370   0.00000   0.02755   0.00275  -90.00000   0.00000   0.00120   356  357  358      8
   358   0.24370   0.00000   0.02479   0.00275  -90.00000   0.00000   0.00120   357  358  359      8
   359   0.24370   0.00000   0.02204   0.00275  -90.00000   0.00000   0.00120   358  359  360      8
   360   0.24370   0.00000   0.01928   0.00275  -90.00000   0.00000   0.00120   359  360  361      8
   361   0.24370   0.00000   0.01653   0.00275  -90.00000   0.00000   0.00120   360  361  362      8
   362   0.24370   0.00000   0.01378   0.00275  -90.00000   0.00000   0.00120   361  362  363      8
   363   0.24370   0.00000   0.01102   0.00275  -90.00000   0.00000   0.00120   362  363  364      8
   364   0.24370   0.00000   0.00827   0.00275  -90.00000   0.00000   0.00120   363  364  365      8
   365   0.24370   0.00000   0.00551   0.00275  -90.00000   0.00000   0.00120   364  365  366      8
   366   0.24370   0.00000   0.00276   0.00275  -90.00000   0.00000   0.00120   365  366  367      8
   367   0.24370   0.00000   0.00000   0.00275  -90.00000   0.00000   0.00120   366  367  368      8
   368   0.24370   0.00000  -0.00275   0.00275  -90.00000   0.00000   0.00120   367  368  369      8
   369   0.24370   0.00000  -0.00551   0.00275  -90.00000   0.00000   0.00120   368  369  370      8
   370   0.24370   0.00000  -0.00826   0.00275  -90.00000   0.00000   0.00120   369  370  371      8
   371   0.24370   0.00000  -0.01102   0.00275  -90.00000   0.00000   0.00120   370  371  372      8
   372   0.24370   0.00000  -0.01377   0.00275  -90.00000   0.00000   0.00120   371  372  373      8
   373   0.24370   0.00000  -0.01653   0.00275  -90.00000   0.00000   0.00120   372  373  374      8
   374   0.24370   0.00000  -0.01928   0.00275  -90.00000   0.00000   0.00120   373  374  375      8
   375   0.24370   0.00000  -0.02204   0.00275  -90.00000   0.00000   0.00120   374  375  376      8
   376   0.24370   0.00000  -0.02479   0.00275  -90.00000   0.00000   0.00120   375  376  377      8
   377   0.24370   0.00000  -0.02755   0.00275  -90.00000   0.00000   0.00120   376  377  378      8
   378   0.24370   0.00000  -0.03030   0.00275  -90.00000   0.00000   0.00120   377  378  379      8
   379   0.24370   0.00000  -0.03306   0.00275  -90.00000   0.00000   0.00120   378  379  380      8
   380   0.24370   0.00000  -0.03581   0.00275  -90.00000   0.00000   0.00120   379  380  381      8
   381   0.24370   0.00000  -0.03857   0.00275  -90.00000   0.00000   0.00120   380  381  382      8
   382   0.24370   0.00000  -0.04132   0.00275  -90.00000   0.00000   0.00120   381  382    0      8
   383   0.27426   0.00000  -0.03890   0.00299   90.00000   0.00000   0.00130     0  383  384      9
   384   0.27426   0.00000  -0.03591   0.00299   90.00000   0.00000   0.00130   383  384  385      9
   385   0.27426   0.00000  -0.03292   0.00299   90.00000   0.00000   0.00130   384  385  386      9
   386   0.27426   0.00000  -0.02992   0.00299   90.00000   0.00000   0.00130   385  386  387      9
   387   0.27426   0.00000  -0.02693   0.00299   90.00000   0.00000   0.00130   386  387  388      9
   388   0.27426   0.00000  -0.02394   0.00299   90.00000   0.00000   0.00130   387  388  389      9
   389   0.27426   0.00000  -0.02095   0.00299   90.00000   0.00000   0.00130   388  389  390      9
   390   0.27426   0.00000  -0.01795   0.00299   90.00000   0.00000   0.00130   389  390  391      9
   391   0.27426   0.00000  -0.01496   0.00299   90.00000   0.00000   0.00130   390  391  392      9
   392   0.27426   0.00000  -0.01197   0.00299   90.00000   0.00000   0.00130   391  392  393      9
   393   0.27426   0.00000  -0.00898   0.00299   90.00000   0.00000   0.00130   392  393  394      9
   394   0.27426   0.00000  -0.00598   0.00299   90.00000   0.00000   0.00130   393  394  395      9
   395   0.27426   0.00000  -0.00299   0.00299   90.00000   0.00000   0.00130   394  395  396      9
   396   0.27426   0.00000   0.00000   0.00299   90.00000   0.00000   0.00130   395  396  397      9
   397   0.27426   0.00000   0.00299   0.00299   90.00000   0.00000   0.00130   396  397  398      9
   398   0.27426   0.00000   0.00598   0.00299   90.00000   0.00000   0.00130   397  398  399      9
   399   0.27426   0.00000   0.00898   0.00299   90.00000   0.00000   0.00130   398  399  400      9
   400   0.27426   0.00000   0.01197   0.00299   90.00000   0.00000   0.00130   399  400  401      9
   401   0.27426   0.00000   0.01496   0.00299   90.00000   0.00000   0.00130   400  401  402      9
   402   0.27426   0.00000   0.01795   0.00299   90.00000   0.00000   0.00130   401  402  403      9
   403   0.27426   0.00000   0.02095   0.00299   90.00000   0.00000   0.00130   402  403  404      9
   404   0.27426   0.00000   0.02394   0.00299   90.00000   0.00000   0.00130   403  404  405      9
   405   0.27426   0.00000   0.02693   0.00299   90.00000   0.00000   0.00130   404  405  406      9
   406   0.27426   0.00000   0.02992   0.00299   90.00000   0.00000   0.00130   405  406  407      9
   407   0.27426   0.00000   0.03292   0.00299   90.00000   0.00000   0.00130   406  407  408      9
   408   0.27426   0.00000   0.03591   0.00299   90.00000   0.00000   0.00130   407  408  409      9
   409   0.27426   0.00000   0.03890   0.00299   90.00000   0.00000   0.00130   408  409    0      9
   410   0.30316   0.00000   0.03669   0.00306  -90.00000   0.00000   0.00140     0  410  411     10
   411   0.30316   0.00000   0.03363   0.00306  -90.00000   0.00000   0.00140   410  411  412     10
   412   0.30316   0.00000   0.03057   0.00306  -90.00000   0.00000   0.00140   411  412  413     10
   413   0.30316   0.00000   0.02751   0.00306  -90.00000   0.00000   0.00140   412  413  414     10
   414   0.30316   0.00000   0.02446   0.00306  -90.00000   0.00000   0.00140   413  414  415     10
   415   0.30316   0.00000   0.02140   0.00306  -90.00000   0.00000   0.00140   414  415  416     10
   416   0.30316   0.00000   0.01834   0.00306  -90.00000   0.00000   0.00140   415  416  417     10
   417   0.30316   0.00000   0.01529   0.00306  -90.00000   0.00000   0.00140   416  417  418     10
   418   0.30316   0.00000   0.01223   0.00306  -90.00000   0.00000   0.00140   417  418  419     10
   419   0.30316   0.00000   0.00917   0.00306  -90.00000   0.00000   0.00140   418  419  420     10
   420   0.30316   0.00000   0.00611   0.00306  -90.00000   0.00000   0.00140   419  420  421     10
   421   0.30316   0.00000   0.00306   0.00306  -90.00000   0.00000   0.00140   420  421  422     10
   422   0.30316   0.00000   0.00000   0.00306  -90.00000   0.00000   0.00140   421  422  423     10
   423   0.30316   0.00000  -0.00306   0.00306  -90.00000   0.00000   0.00140   422  423  424     10
   424   0.30316   0.00000  -0.00611   0.00306  -90.00000   0.00000   0.00140   423  424  425     10
   425   0.30316   0.00000  -0.00917   0.00306  -90.00000   0.00000   0.00140   424  425  426     10
   426   0.30316   0.00000  -0.01223   0.00306  -90.00000   0.00000   0.00140   425  426  427     10
   427   0.30316   0.00000  -0.01529   0.00306  -90.00000   0.00000   0.00140   426  427  428     10
   428   0.30316   0.00000  -0.01834   0.00306  -90.00000   0.00000   0.00140   427  428  429     10
   429   0.30316   0.00000  -0.02140   0.00306  -90.00000   0.00000   0.00140   428  429  430     10
   430   0.30316   0.00000  -0.02446   0.00306  -90.00000   0.00000   0.00140   429  430  431     10
   431   0.30316   0.00000  -0.02751   0.00306  -90.00000   0.00000   0.00140   430  431  432     10
   432   0.30316   0.00000  -0.03057   0.00306  -90.00000   0.00000   0.00140   431  432  433     10
   433   0.30316   0.00000  -0.03363   0.00306  -90.00000   0.00000   0.00140   432  433  434     10
   434   0.30316   0.00000  -0.03669   0.00306  -90.00000   0.00000   0.00140   433  434    0     10
   435   0.33051   0.00000  -0.03443   0.00344   90.00000   0.00000   0.00140     0  435  436     11
   436   0.33051   0.00000  -0.03099   0.00344   90.00000   0.00000   0.00140   435  436  437     11
   437   0.33051   0.00000  -0.02754   0.00344   90.00000   0.00000   0.00140   436  437  438     11
   438   0.33051   0.00000  -0.02410   0.00344   90.00000   0.00000   0.00140   437  438  439     11
   439   0.33051   0.00000  -0.02066   0.00344   90.00000   0.00000   0.00140   438  439  440     11
   440   0.33051   0.00000  -0.01721   0.00344   90.00000   0.00000   0.00140   439  440  441     11
   441   0.33051   0.00000  -0.01377   0.00344   90.00000   0.00000   0.00140   440  441  442     11
   442   0.33051   0.00000  -0.01033   0.00344   90.00000   0.00000   0.00140   441  442  443     11
   443   0.33051   0.00000  -0.00689   0.00344   90.00000   0.00000   0.00140   442  443  444     11
   444   0.33051   0.00000  -0.00344   0.00344   90.00000   0.00000   0.00140   443  444  445     11
   445   0.33051   0.00000   0.00000   0.00344   90.00000   0.00000   0.00140   444  445  446     11
   446   0.33051   0.00000   0.00344   0.00344   90.00000   0.00000   0.00140   445  446  447     11
   447   0.33051   0.00000   0.00689   0.00344   90.00000   0.00000   0.00140   446  447  448     11
   448   0.33051   0.00000   0.01033   0.00344   90.00000   0.00000   0.00140   447  448  449     11
   449   0.33051   0.00000   0.01377   0.00344   90.00000   0.00000   0.00140   448  449  450     11
   450   0.33051   0.00000   0.01722   0.00344   90.00000   0.00000   0.00140   449  450  451     11
   451   0.33051   0.00000   0.02066   0.00344   90.00000   0.00000   0.00140   450  451  452     11
   452   0.33051   0.00000   0.02410   0.00344   90.00000   0.00000   0.00140   451  452  453     11
   453   0.33051   0.00000   0.02754   0.00344   90.00000   0.00000   0.00140   452  453  454     11
   454   0.33051   0.00000   0.03099   0.00344   90.00000   0.00000   0.00140   453  454  455     11
   455   0.33051   0.00000   0.03443   0.00344   90.00000   0.00000   0.00140   454  455    0     11
   456   0.35637   0.00000   0.03240   0.00360  -90.00000   0.00000   0.00150     0  456  457     12
   457   0.35637   0.00000   0.02880   0.00360  -90.00000   0.00000   0.00150   456  457  458     12
   458   0.35637   0.00000   0.02520   0.00360  -90.00000   0.00000   0.00150   457  458  459     12
   459   0.35637   0.00000   0.02160   0.00360  -90.00000   0.00000   0.00150   458  459  460     12
   460   0.35637   0.00000   0.01800   0.00360  -90.00000   0.00000   0.00150   459  460  461     12
   461   0.35637   0.00000   0.01440   0.00360  -90.00000   0.00000   0.00150   460  461  462     12
   462   0.35637   0.00000   0.01080   0.00360  -90.00000   0.00000   0.00150   461  462  463     12
   463   0.35637   0.00000   0.00720   0.00360  -90.00000   0.00000   0.00150   462  463  464     12
   464   0.35637   0.00000   0.00360   0.00360  -90.00000   0.00000   0.00150   463  464  465     12
   465   0.35637   0.00000   0.00000   0.00360  -90.00000   0.00000   0.00150   464  465  466     12
   466   0.35637   0.00000  -0.00360   0.00360  -90.00000   0.00000   0.00150   465  466  467     12
   467   0.35637   0.00000  -0.00720   0.00360  -90.00000   0.00000   0.00150   466  467  468     12
   468   0.35637   0.00000  -0.01080   0.00360  -90.00000   0.00000   0.00150   467  468  469     12
   469   0.35637   0.00000  -0.01440   0.00360  -90.00000   0.00000   0.00150   468  469  470     12
   470   0.35637   0.00000  -0.01800   0.00360  -90.00000   0.00000   0.00150   469  470  471     12
   471   0.35637   0.00000  -0.02160   0.00360  -90.00000   0.00000   0.00150   470  471  472     12
   472   0.35637   0.00000  -0.02520   0.00360  -90.00000   0.00000   0.00150   471  472  473     12
   473   0.35637   0.00000  -0.02880   0.00360  -90.00000   0.00000   0.00150   472  473  474     12
   474   0.35637   0.00000  -0.03240   0.00360  -90.00000   0.00000   0.00150   473  474    0     12
   475   0.38084   0.00000  -0.03045   0.00381   90.00000   0.00000   0.00160     0  475  476     13
   476   0.38084   0.00000  -0.02664   0.00381   90.00000   0.00000   0.00160   475  476  477     13
   477   0.38084   0.00000  -0.02284   0.00381   90.00000   0.00000   0.00160   476  477  478     13
   478   0.38084   0.00000  -0.01903   0.00381   90.00000   0.00000   0.00160   477  478  479     13
   479   0.38084   0.00000  -0.01522   0.00381   90.00000   0.00000   0.00160   478  479  480     13
   480   0.38084   0.00000  -0.01142   0.00381   90.00000   0.00000   0.00160   479  480  481     13
   481   0.38084   0.00000  -0.00761   0.00381   90.00000   0.00000   0.00160   480  481  482     13
   482   0.38084   0.00000  -0.00381   0.00381   90.00000   0.00000   0.00160   481  482  483     13
   483   0.38084   0.00000   0.00000   0.00381   90.00000   0.00000   0.00160   482  483  484     13
   484   0.38084   0.00000   0.00381   0.00381   90.00000   0.00000   0.00160   483  484  485     13
   485   0.38084   0.00000   0.00761   0.00381   90.00000   0.00000   0.00160   484  485  486     13
   486   0.38084   0.00000   0.01142   0.00381   90.00000   0.00000   0.00160   485  486  487     13
   487   0.38084   0.00000   0.01522   0.00381   90.00000   0.00000   0.00160   486  487  488     13
   488   0.38084   0.00000   0.01903   0.00381   90.00000   0.00000   0.00160   487  488  489     13
   489   0.38084   0.00000   0.02284   0.00381   90.00000   0.00000   0.00160   488  489  490     13
   490   0.38084   0.00000   0.02664   0.00381   90.00000   0.00000   0.00160   489  490  491     13
   491   0.38084   0.00000   0.03045   0.00381   90.00000   0.00000   0.00160   490  491    0     13
   492  -0.03800   0.00000   0.00000   0.00183   90.00000   0.00000   0.00160     0  492    0     14
   493   0.40584   0.00000   0.00000   0.00640  -90.00000   0.00000   0.00160     0  493    0     15






 ***** DATA CARD NO.  1   GN  -1     0     0     0  0.00000E+00  0.00000E+00  0.00000E+00  0.00000E+00  0.00000E+00  0.00000E+00
 ***** DATA CARD NO.  2   EK   0     0     0     0  0.00000E+00  0.00000E+00  0.00000E+00  0.00000E+00  0.00000E+00  0.00000E+00
 ***** DATA CARD NO.  3   EX   0    15     1     0  1.00000E+00  0.00000E+00  1.00000E+00  0.00000E+00  0.00000E+00  0.00000E+00
 ***** DATA CARD NO.  4   TL  15     1    13     9  7.20999E+01  0.00000E+00  0.00000E+00  0.00000E+00  0.00000E+00  0.00000E+00
 ***** DATA CARD NO.  5   TL  14     1     1    35  7.20999E+01  0.00000E+00  0.00000E+00  0.00000E+00  0.00000E+00  0.00000E+00
 ***** DATA CARD NO.  6   TL   1    35     2    31  7.20999E+01  0.00000E+00  0.00000E+00  0.00000E+00  0.00000E+00  0.00000E+00
 ***** DATA CARD NO.  7   TL   2    31     3    28  7.20999E+01  0.00000E+00  0.00000E+00  0.00000E+00  0.00000E+00  0.00000E+00
 ***** DATA CARD NO.  8   TL   3    28     4    25  7.20999E+01  0.00000E+00  0.00000E+00  0.00000E+00  0.00000E+00  0.00000E+00
 ***** DATA CARD NO.  9   TL   4    25     5    22  7.20999E+01  0.00000E+00  0.00000E+00  0.00000E+00  0.00000E+00  0.00000E+00
 ***** DATA CARD NO. 10   TL   5    22     6    20  7.20999E+01  0.00000E+00  0.00000E+00  0.00000E+00  0.00000E+00  0.00000E+00
 ***** DATA CARD NO. 11   TL   6    20     7    18  7.20999E+01  0.00000E+00  0.00000E+00  0.00000E+00  0.00000E+00  0.00000E+00
 ***** DATA CARD NO. 12   TL   7    18     8    16  7.20999E+01  0.00000E+00  0.00000E+00  0.00000E+00  0.00000E+00  0.00000E+00
 ***** DATA CARD NO. 13   TL   8    16     9    14  7.20999E+01  0.00000E+00  0.00000E+00  0.00000E+00  0.00000E+00  0.00000E+00
 ***** DATA CARD NO. 14   TL   9    14    10    13  7.20999E+01  0.00000E+00  0.00000E+00  0.00000E+00  0.00000E+00  0.00000E+00
 ***** DATA CARD NO. 15   TL  10    13    11    11  7.20999E+01  0.00000E+00  0.00000E+00  0.00000E+00  0.00000E+00  0.00000E+00
 ***** DATA CARD NO. 16   TL  11    11    12    10  7.20999E+01  0.00000E+00  0.00000E+00  0.00000E+00  0.00000E+00  0.00000E+00
 ***** DATA CARD NO. 17   TL  12    10    13     9  7.20999E+01  0.00000E+00  0.00000E+00  0.00000E+00  0.00000E+00  0.00000E+00
 ***** DATA CARD NO. 18   FR   0     0     0     0  1.40000E+03  0.00000E+00  0.00000E+00  0.00000E+00  0.00000E+00  0.00000E+00
 ***** DATA CARD NO. 19   XQ   0     0     0     0  0.00000E+00  0.00000E+00  0.00000E+00  0.00000E+00  0.00000E+00  0.00000E+00




                                 - - - - - - FREQUENCY - - - - - -

                                    FREQUENCY= 1.4000E+03 MHZ
                                    WAVELENGTH= 2.1414E-01 METERS




                    APPROXIMATE INTEGRATION EMPLOYED FOR SEGMENTS MORE THAN   1.000 WAVELENGTHS APART

                    THE EXTENDED THIN WIRE KERNEL WILL BE USED



                               - - - STRUCTURE IMPEDANCE LOADING - - -

                                   THIS STRUCTURE IS NOT LOADED



                                  - - - ANTENNA ENVIRONMENT - - -

                                            FREE SPACE



                                - - - MATRIX TIMING - - -

                        FILL=    0.219 SEC.,  FACTOR=    0.078 SEC.



                                            - - - NETWORK DATA - - -

      - FROM -    - TO -           TRANSMISSION LINE               -  -  SHUNT ADMITTANCES (MHOS)  -  -              LINE
      TAG  SEG.   TAG  SEG.      IMPEDANCE      LENGTH            - END ONE -                 - END TWO -            TYPE
      NO.   NO.   NO.   NO.         OHMS        METERS         REAL          IMAG.         REAL          IMAG.
       15   493    13   483     7.2100E+01    2.5000E-02    0.0000E+00    0.0000E+00    0.0000E+00    0.0000E+00   STRAIGHT
       14   492     1    35     7.2100E+01    1.3000E-02    0.0000E+00    0.0000E+00    0.0000E+00    0.0000E+00   STRAIGHT
        1    35     2   100     7.2100E+01    4.5064E-02    0.0000E+00    0.0000E+00    0.0000E+00    0.0000E+00   STRAIGHT
        2   100     3   158     7.2100E+01    4.2631E-02    0.0000E+00    0.0000E+00    0.0000E+00    0.0000E+00   STRAIGHT
        3   158     4   210     7.2100E+01    4.0329E-02    0.0000E+00    0.0000E+00    0.0000E+00    0.0000E+00   STRAIGHT
        4   210     5   256     7.2100E+01    3.8151E-02    0.0000E+00    0.0000E+00    0.0000E+00    0.0000E+00   STRAIGHT
        5   256     6   297     7.2100E+01    3.6091E-02    0.0000E+00    0.0000E+00    0.0000E+00    0.0000E+00   STRAIGHT
        6   297     7   334     7.2100E+01    3.4142E-02    0.0000E+00    0.0000E+00    0.0000E+00    0.0000E+00   STRAIGHT
        7   334     8   367     7.2100E+01    3.2298E-02    0.0000E+00    0.0000E+00    0.0000E+00    0.0000E+00   STRAIGHT
        8   367     9   396     7.2100E+01    3.0554E-02    0.0000E+00    0.0000E+00    0.0000E+00    0.0000E+00   STRAIGHT
        9   396    10   422     7.2100E+01    2.8904E-02    0.0000E+00    0.0000E+00    0.0000E+00    0.0000E+00   STRAIGHT
       10   422    11   445     7.2100E+01    2.7343E-02    0.0000E+00    0.0000E+00    0.0000E+00    0.0000E+00   STRAIGHT
       11   445    12   465     7.2100E+01    2.5867E-02    0.0000E+00    0.0000E+00    0.0000E+00    0.0000E+00   STRAIGHT
       12   465    13   483     7.2100E+01    2.4470E-02    0.0000E+00    0.0000E+00    0.0000E+00    0.0000E+00   STRAIGHT



                           - - - STRUCTURE EXCITATION DATA AT NETWORK CONNECTION POINTS - - -

   TAG   SEG.    VOLTAGE (VOLTS)         CURRENT (AMPS)         IMPEDANCE (OHMS)        ADMITTANCE (MHOS)      POWER
   NO.   NO.    REAL        IMAG.       REAL        IMAG.       REAL        IMAG.       REAL        IMAG.     (WATTS)
    13   483 5.06421E-01-6.43291E-01 4.23556E-03-1.39773E-04 1.24440E+02-1.47772E+02 3.33424E-03 3.95939E-03 1.11745E-03
    14   492-2.00020E-02-5.63485E-02 5.13992E-05-1.79867E-05-4.91173E+00-1.09801E+03-4.07393E-06 9.10721E-04-7.28263E-09
     1    35-1.80818E-02-5.09193E-02-1.83737E-04-2.18668E-05 1.29558E+02 2.61713E+02 1.51923E-03-3.06890E-03 2.21786E-06
     2   100 5.46336E-03-1.70214E-03 1.26987E-04 2.88379E-05 3.80184E+01-2.20379E+01 1.96878E-02 1.14123E-02 3.22344E-07
     3   158 1.87693E-02 5.76131E-02 6.05609E-04-3.11266E-04-1.41619E+01 8.78536E+01-1.78838E-03-1.10943E-02-3.28307E-06
     4   210 2.83003E-02 8.15329E-02 1.80366E-03 6.31666E-04 2.80778E+01 3.53709E+01 1.37673E-02-1.73432E-02 5.12729E-05
     5   256-3.64838E-02 1.26536E-01-2.03282E-05 4.08820E-03 3.09950E+01 8.77007E+00 2.98717E-02-8.45222E-03 2.59022E-04
     6   297-3.17691E-01 3.51844E-02-5.90452E-03-1.68973E-03 4.81556E+01-1.97399E+01 1.77786E-02 7.28777E-03 9.08179E-04
     7   334-1.83649E-01-4.45287E-01 3.40488E-03-1.03928E-02 3.34646E+01-2.86346E+01 1.72514E-02 1.47615E-02 2.00123E-03
     8   367 7.12164E-01-3.25707E-01 1.13990E-02 7.34032E-03 3.11568E+01-4.86366E+01 9.33882E-03 1.45781E-02 2.86357E-03
     9   396 6.07678E-01 6.84127E-01-8.72595E-03 1.41146E-02 1.58104E+01-5.28274E+01 5.19959E-03 1.73734E-02 2.17682E-03
    10   422-6.80819E-01 7.03484E-01-1.06878E-02-1.03789E-02-1.12203E-01-6.57120E+01-2.59845E-05 1.52179E-02-1.24518E-05
    11   445-9.49383E-01-2.74805E-01 6.09577E-03-8.94537E-03-2.84097E+01-8.67717E+01-3.40790E-03 1.04087E-02-1.66450E-03
    12   465-2.24949E-01-7.53132E-01 3.87065E-03 1.59622E-03-1.18248E+02-1.45811E+02-3.35518E-03 4.13726E-03-1.03643E-03
    15   493 1.00000E+00 0.00000E+00 4.49164E-05 7.86417E-04 7.23912E+01-1.26746E+03 4.49164E-05 7.86417E-04 2.24582E-05



                                          - - - ANTENNA INPUT PARAMETERS - - -

   TAG   SEG.    VOLTAGE (VOLTS)         CURRENT (AMPS)         IMPEDANCE (OHMS)        ADMITTANCE (MHOS)      POWER
   NO.   NO.    REAL        IMAG.       REAL        IMAG.       REAL        IMAG.       REAL        IMAG.     (WATTS)
    15   493 1.00000E+00 0.00000E+00 1.33717E-02-4.11093E-03 6.83267E+01 2.10060E+01 1.33717E-02-4.11093E-03 6.68586E-03



                             - - - CURRENTS AND LOCATION - - -

                                 DISTANCES IN WAVELENGTHS


  SEG.  TAG    COORD. OF SEG. CENTER     SEG.            - - - CURRENT (AMPS) - - -
  NO.   NO.     X        Y        Z      LENGTH     REAL        IMAG.       MAG.        PHASE
     1    1  -0.1167   0.0000  -0.2898  0.00852  -2.1379E-05  2.1916E-06  2.1491E-05  174.147
     2    1  -0.1167   0.0000  -0.2813  0.00852  -4.1057E-05  4.1389E-06  4.1265E-05  174.244
     3    1  -0.1167   0.0000  -0.2728  0.00852  -5.7694E-05  5.7148E-06  5.7976E-05  174.343
     4    1  -0.1167   0.0000  -0.2643  0.00852  -7.3151E-05  7.1150E-06  7.3497E-05  174.445
     5    1  -0.1167   0.0000  -0.2557  0.00852  -8.7752E-05  8.3732E-06  8.8150E-05  174.549
     6    1  -0.1167   0.0000  -0.2472  0.00852  -1.0165E-04  9.5048E-06  1.0209E-04  174.658
     7    1  -0.1167   0.0000  -0.2387  0.00852  -1.1491E-04  1.0517E-05  1.1539E-04  174.771
     8    1  -0.1167   0.0000  -0.2302  0.00852  -1.2758E-04  1.1412E-05  1.2809E-04  174.889
     9    1  -0.1167   0.0000  -0.2216  0.00852  -1.3966E-04  1.2191E-05  1.4019E-04  175.011
    10    1  -0.1167   0.0000  -0.2131  0.00852  -1.5116E-04  1.2853E-05  1.5171E-04  175.140
    11    1  -0.1167   0.0000  -0.2046  0.00852  -1.6207E-04  1.3398E-05  1.6262E-04  175.274
    12    1  -0.1167   0.0000  -0.1961  0.00852  -1.7237E-04  1.3822E-05  1.7292E-04  175.415
    13    1  -0.1167   0.0000  -0.1876  0.00852  -1.8206E-04  1.4126E-05  1.8260E-04  175.563
    14    1  -0.1167   0.0000  -0.1790  0.00852  -1.9111E-04  1.4305E-05  1.9165E-04  175.719
    15    1  -0.1167   0.0000  -0.1705  0.00852  -1.9952E-04  1.4359E-05  2.0003E-04  175.884
    16    1  -0.1167   0.0000  -0.1620  0.00852  -2.0725E-04  1.4286E-05  2.0775E-04  176.057
    17    1  -0.1167   0.0000  -0.1535  0.00852  -2.1431E-04  1.4082E-05  2.1477E-04  176.240
    18    1  -0.1167   0.0000  -0.1449  0.00852  -2.2066E-04  1.3747E-05  2.2108E-04  176.435
    19    1  -0.1167   0.0000  -0.1364  0.00852  -2.2628E-04  1.3278E-05  2.2667E-04  176.642
    20    1  -0.1167   0.0000  -0.1279  0.00852  -2.3118E-04  1.2674E-05  2.3152E-04  176.862
    21    1  -0.1167   0.0000  -0.1194  0.00852  -2.3531E-04  1.1931E-05  2.3561E-04  177.097
    22    1  -0.1167   0.0000  -0.1108  0.00852  -2.3867E-04  1.1049E-05  2.3893E-04  177.350
    23    1  -0.1167   0.0000  -0.1023  0.00852  -2.4124E-04  1.0023E-05  2.4145E-04  177.621
    24    1  -0.1167   0.0000  -0.0938  0.00852  -2.4301E-04  8.8525E-06  2.4317E-04  177.914
    25    1  -0.1167   0.0000  -0.0853  0.00852  -2.4394E-04  7.5323E-06  2.4406E-04  178.231
    26    1  -0.1167   0.0000  -0.0767  0.00852  -2.4402E-04  6.0576E-06  2.4410E-04  178.578
    27    1  -0.1167   0.0000  -0.0682  0.00852  -2.4323E-04  4.4216E-06  2.4327E-04  178.959
    28    1  -0.1167   0.0000  -0.0597  0.00852  -2.4152E-04  2.6142E-06  2.4153E-04  179.380
    29    1  -0.1167   0.0000  -0.0512  0.00852  -2.3885E-04  6.2033E-07  2.3885E-04  179.851
    30    1  -0.1167   0.0000  -0.0426  0.00852  -2.3514E-04 -1.5838E-06  2.3515E-04 -179.614
    31    1  -0.1167   0.0000  -0.0341  0.00852  -2.3028E-04 -4.0384E-06  2.3032E-04 -178.995
    32    1  -0.1167   0.0000  -0.0256  0.00852  -2.2405E-04 -6.8196E-06  2.2415E-04 -178.257
    33    1  -0.1167   0.0000  -0.0171  0.00852  -2.1607E-04 -1.0060E-05  2.1630E-04 -177.334
    34    1  -0.1167   0.0000  -0.0085  0.00852  -2.0396E-04 -1.4605E-05  2.0448E-04 -175.904
    35    1  -0.1167   0.0000   0.0000  0.00852  -1.8374E-04 -2.1867E-05  1.8503E-04 -173.213
    36    1  -0.1167   0.0000   0.0085  0.00852  -2.0396E-04 -1.4605E-05  2.0448E-04 -175.904
    37    1  -0.1167   0.0000   0.0170  0.00852  -2.1607E-04 -1.0060E-05  2.1630E-04 -177.334
    38    1  -0.1167   0.0000   0.0256  0.00852  -2.2405E-04 -6.8195E-06  2.2415E-04 -178.257
    39    1  -0.1167   0.0000   0.0341  0.00852  -2.3028E-04 -4.0383E-06  2.3032E-04 -178.995
    40    1  -0.1167   0.0000   0.0426  0.00852  -2.3514E-04 -1.5837E-06  2.3515E-04 -179.614
    41    1  -0.1167   0.0000   0.0511  0.00852  -2.3885E-04  6.2044E-07  2.3885E-04  179.851
    42    1  -0.1167   0.0000   0.0597  0.00852  -2.4152E-04  2.6143E-06  2.4153E-04  179.380
    43    1  -0.1167   0.0000   0.0682  0.00852  -2.4323E-04  4.4217E-06  2.4327E-04  178.959
    44    1  -0.1167   0.0000   0.0767  0.00852  -2.4403E-04  6.0578E-06  2.4410E-04  178.578
    45    1  -0.1167   0.0000   0.0852  0.00852  -2.4394E-04  7.5325E-06  2.4406E-04  178.231
    46    1  -0.1167   0.0000   0.0938  0.00852  -2.4301E-04  8.8527E-06  2.4317E-04  177.914
    47    1  -0.1167   0.0000   0.1023  0.00852  -2.4124E-04  1.0024E-05  2.4145E-04  177.621
    48    1  -0.1167   0.0000   0.1108  0.00852  -2.3867E-04  1.1049E-05  2.3893E-04  177.350
    49    1  -0.1167   0.0000   0.1193  0.00852  -2.3531E-04  1.1931E-05  2.3561E-04  177.097
    50    1  -0.1167   0.0000   0.1279  0.00852  -2.3118E-04  1.2674E-05  2.3152E-04  176.862
    51    1  -0.1167   0.0000   0.1364  0.00852  -2.2629E-04  1.3278E-05  2.2667E-04  176.642
    52    1  -0.1167   0.0000   0.1449  0.00852  -2.2066E-04  1.3747E-05  2.2109E-04  176.435
    53    1  -0.1167   0.0000   0.1534  0.00852  -2.1431E-04  1.4082E-05  2.1477E-04  176.240
    54    1  -0.1167   0.0000   0.1620  0.00852  -2.0726E-04  1.4286E-05  2.0775E-04  176.057
    55    1  -0.1167   0.0000   0.1705  0.00852  -1.9952E-04  1.4360E-05  2.0003E-04  175.883
    56    1  -0.1167   0.0000   0.1790  0.00852  -1.9111E-04  1.4306E-05  1.9165E-04  175.719
    57    1  -0.1167   0.0000   0.1875  0.00852  -1.8206E-04  1.4126E-05  1.8261E-04  175.563
    58    1  -0.1167   0.0000   0.1961  0.00852  -1.7237E-04  1.3823E-05  1.7292E-04  175.415
    59    1  -0.1167   0.0000   0.2046  0.00852  -1.6207E-04  1.3398E-05  1.6262E-04  175.274
    60    1  -0.1167   0.0000   0.2131  0.00852  -1.5116E-04  1.2854E-05  1.5171E-04  175.140
    61    1  -0.1167   0.0000   0.2216  0.00852  -1.3966E-04  1.2191E-05  1.4019E-04  175.011
    62    1  -0.1167   0.0000   0.2302  0.00852  -1.2758E-04  1.1412E-05  1.2809E-04  174.889
    63    1  -0.1167   0.0000   0.2387  0.00852  -1.1491E-04  1.0517E-05  1.1540E-04  174.771
    64    1  -0.1167   0.0000   0.2472  0.00852  -1.0165E-04  9.5050E-06  1.0209E-04  174.658
    65    1  -0.1167   0.0000   0.2557  0.00852  -8.7752E-05  8.3733E-06  8.8151E-05  174.549
    66    1  -0.1167   0.0000   0.2643  0.00852  -7.3152E-05  7.1152E-06  7.3497E-05  174.445
    67    1  -0.1167   0.0000   0.2728  0.00852  -5.7694E-05  5.7149E-06  5.7977E-05  174.343
    68    1  -0.1167   0.0000   0.2813  0.00852  -4.1058E-05  4.1390E-06  4.1266E-05  174.243
    69    1  -0.1167   0.0000   0.2898  0.00852  -2.1379E-05  2.1917E-06  2.1491E-05  174.147
    70    2   0.0937   0.0000   0.2737  0.00912   7.6216E-06  1.1377E-06  7.7060E-06    8.490
    71    2   0.0937   0.0000   0.2645  0.00912   1.4777E-05  2.1887E-06  1.4938E-05    8.425
    72    2   0.0937   0.0000   0.2554  0.00912   2.1037E-05  3.0938E-06  2.1263E-05    8.366
    73    2   0.0937   0.0000   0.2463  0.00912   2.7033E-05  3.9506E-06  2.7320E-05    8.314
    74    2   0.0937   0.0000   0.2372  0.00912   3.2868E-05  4.7771E-06  3.3214E-05    8.270
    75    2   0.0937   0.0000   0.2281  0.00912   3.8588E-05  5.5830E-06  3.8989E-05    8.233
    76    2   0.0937   0.0000   0.2189  0.00912   4.4208E-05  6.3737E-06  4.4665E-05    8.204
    77    2   0.0937   0.0000   0.2098  0.00912   4.9732E-05  7.1530E-06  5.0243E-05    8.185
    78    2   0.0937   0.0000   0.2007  0.00912   5.5156E-05  7.9237E-06  5.5722E-05    8.175
    79    2   0.0937   0.0000   0.1916  0.00912   6.0473E-05  8.6882E-06  6.1094E-05    8.176
    80    2   0.0937   0.0000   0.1824  0.00912   6.5672E-05  9.4488E-06  6.6349E-05    8.187
    81    2   0.0937   0.0000   0.1733  0.00912   7.0741E-05  1.0207E-05  7.1474E-05    8.211
    82    2   0.0937   0.0000   0.1642  0.00912   7.5667E-05  1.0965E-05  7.6457E-05    8.246
    83    2   0.0937   0.0000   0.1551  0.00912   8.0436E-05  1.1725E-05  8.1286E-05    8.294
    84    2   0.0937   0.0000   0.1460  0.00912   8.5035E-05  1.2488E-05  8.5947E-05    8.355
    85    2   0.0937   0.0000   0.1368  0.00912   8.9449E-05  1.3255E-05  9.0426E-05    8.429
    86    2   0.0937   0.0000   0.1277  0.00912   9.3667E-05  1.4029E-05  9.4712E-05    8.518
    87    2   0.0937   0.0000   0.1186  0.00912   9.7674E-05  1.4811E-05  9.8791E-05    8.622
    88    2   0.0937   0.0000   0.1095  0.00912   1.0146E-04  1.5602E-05  1.0265E-04    8.742
    89    2   0.0937   0.0000   0.1003  0.00912   1.0501E-04  1.6404E-05  1.0628E-04    8.878
    90    2   0.0937   0.0000   0.0912  0.00912   1.0832E-04  1.7219E-05  1.0968E-04    9.032
    91    2   0.0937   0.0000   0.0821  0.00912   1.1137E-04  1.8049E-05  1.1282E-04    9.205
    92    2   0.0937   0.0000   0.0730  0.00912   1.1416E-04  1.8897E-05  1.1571E-04    9.399
    93    2   0.0937   0.0000   0.0639  0.00912   1.1668E-04  1.9766E-05  1.1834E-04    9.615
    94    2   0.0937   0.0000   0.0547  0.00912   1.1892E-04  2.0662E-05  1.2071E-04    9.856
    95    2   0.0937   0.0000   0.0456  0.00912   1.2089E-04  2.1593E-05  1.2280E-04   10.127
    96    2   0.0937   0.0000   0.0365  0.00912   1.2257E-04  2.2572E-05  1.2463E-04   10.434
    97    2   0.0937   0.0000   0.0274  0.00912   1.2397E-04  2.3623E-05  1.2620E-04   10.788
    98    2   0.0937   0.0000   0.0182  0.00912   1.2511E-04  2.4791E-05  1.2754E-04   11.208
    99    2   0.0937   0.0000   0.0091  0.00912   1.2606E-04  2.6359E-05  1.2879E-04   11.810
   100    2   0.0937   0.0000   0.0000  0.00912   1.2699E-04  2.8838E-05  1.3022E-04   12.795
   101    2   0.0937   0.0000  -0.0091  0.00912   1.2606E-04  2.6359E-05  1.2879E-04   11.810
   102    2   0.0937   0.0000  -0.0182  0.00912   1.2511E-04  2.4790E-05  1.2754E-04   11.208
   103    2   0.0937   0.0000  -0.0274  0.00912   1.2397E-04  2.3623E-05  1.2620E-04   10.788
   104    2   0.0937   0.0000  -0.0365  0.00912   1.2257E-04  2.2571E-05  1.2463E-04   10.434
   105    2   0.0937   0.0000  -0.0456  0.00912   1.2089E-04  2.1593E-05  1.2280E-04   10.127
   106    2   0.0937   0.0000  -0.0547  0.00912   1.1892E-04  2.0662E-05  1.2071E-04    9.856
   107    2   0.0937   0.0000  -0.0639  0.00912   1.1668E-04  1.9766E-05  1.1834E-04    9.615
   108    2   0.0937   0.0000  -0.0730  0.00912   1.1416E-04  1.8896E-05  1.1571E-04    9.399
   109    2   0.0937   0.0000  -0.0821  0.00912   1.1137E-04  1.8048E-05  1.1282E-04    9.205
   110    2   0.0937   0.0000  -0.0912  0.00912   1.0832E-04  1.7218E-05  1.0968E-04    9.032
   111    2   0.0937   0.0000  -0.1003  0.00912   1.0501E-04  1.6403E-05  1.0628E-04    8.878
   112    2   0.0937   0.0000  -0.1095  0.00912   1.0146E-04  1.5601E-05  1.0265E-04    8.742
   113    2   0.0937   0.0000  -0.1186  0.00912   9.7673E-05  1.4810E-05  9.8790E-05    8.622
   114    2   0.0937   0.0000  -0.1277  0.00912   9.3666E-05  1.4028E-05  9.4711E-05    8.518
   115    2   0.0937   0.0000  -0.1368  0.00912   8.9448E-05  1.3255E-05  9.0425E-05    8.429
   116    2   0.0937   0.0000  -0.1460  0.00912   8.5034E-05  1.2487E-05  8.5946E-05    8.354
   117    2   0.0937   0.0000  -0.1551  0.00912   8.0435E-05  1.1724E-05  8.1285E-05    8.293
   118    2   0.0937   0.0000  -0.1642  0.00912   7.5666E-05  1.0965E-05  7.6456E-05    8.245
   119    2   0.0937   0.0000  -0.1733  0.00912   7.0740E-05  1.0206E-05  7.1473E-05    8.210
   120    2   0.0937   0.0000  -0.1824  0.00912   6.5671E-05  9.4480E-06  6.6347E-05    8.187
   121    2   0.0937   0.0000  -0.1916  0.00912   6.0472E-05  8.6874E-06  6.1093E-05    8.175
   122    2   0.0937   0.0000  -0.2007  0.00912   5.5155E-05  7.9229E-06  5.5721E-05    8.174
   123    2   0.0937   0.0000  -0.2098  0.00912   4.9731E-05  7.1522E-06  5.0242E-05    8.184
   124    2   0.0937   0.0000  -0.2189  0.00912   4.4207E-05  6.3730E-06  4.4664E-05    8.203
   125    2   0.0937   0.0000  -0.2281  0.00912   3.8587E-05  5.5824E-06  3.8989E-05    8.232
   126    2   0.0937   0.0000  -0.2372  0.00912   3.2868E-05  4.7766E-06  3.3213E-05    8.269
   127    2   0.0937   0.0000  -0.2463  0.00912   2.7033E-05  3.9501E-06  2.7320E-05    8.313
   128    2   0.0937   0.0000  -0.2554  0.00912   2.1037E-05  3.0934E-06  2.1263E-05    8.365
   129    2   0.0937   0.0000  -0.2645  0.00912   1.4776E-05  2.1884E-06  1.4938E-05    8.424
   130    2   0.0937   0.0000  -0.2737  0.00912   7.6214E-06  1.1375E-06  7.7058E-06    8.489
   131    3   0.2928   0.0000  -0.2584  0.00957   5.7565E-05 -2.8238E-05  6.4118E-05  -26.130
   132    3   0.2928   0.0000  -0.2488  0.00957   1.1099E-04 -5.4394E-05  1.2361E-04  -26.108
   133    3   0.2928   0.0000  -0.2393  0.00957   1.5657E-04 -7.6654E-05  1.7433E-04  -26.085
   134    3   0.2928   0.0000  -0.2297  0.00957   1.9923E-04 -9.7442E-05  2.2178E-04  -26.063
   135    3   0.2928   0.0000  -0.2201  0.00957   2.3976E-04 -1.1716E-04  2.6686E-04  -26.042
   136    3   0.2928   0.0000  -0.2106  0.00957   2.7854E-04 -1.3599E-04  3.0997E-04  -26.023
   137    3   0.2928   0.0000  -0.2010  0.00957   3.1570E-04 -1.5402E-04  3.5127E-04  -26.006
   138    3   0.2928   0.0000  -0.1914  0.00957   3.5129E-04 -1.7127E-04  3.9081E-04  -25.991
   139    3   0.2928   0.0000  -0.1818  0.00957   3.8528E-04 -1.8774E-04  4.2859E-04  -25.979
   140    3   0.2928   0.0000  -0.1723  0.00957   4.1763E-04 -2.0342E-04  4.6454E-04  -25.970
   141    3   0.2928   0.0000  -0.1627  0.00957   4.4828E-04 -2.1830E-04  4.9860E-04  -25.965
   142    3   0.2928   0.0000  -0.1531  0.00957   4.7714E-04 -2.3234E-04  5.3070E-04  -25.963
   143    3   0.2928   0.0000  -0.1436  0.00957   5.0413E-04 -2.4552E-04  5.6074E-04  -25.966
   144    3   0.2928   0.0000  -0.1340  0.00957   5.2917E-04 -2.5780E-04  5.8863E-04  -25.974
   145    3   0.2928   0.0000  -0.1244  0.00957   5.5217E-04 -2.6915E-04  6.1427E-04  -25.986
   146    3   0.2928   0.0000  -0.1149  0.00957   5.7304E-04 -2.7954E-04  6.3759E-04  -26.004
   147    3   0.2928   0.0000  -0.1053  0.00957   5.9170E-04 -2.8894E-04  6.5848E-04  -26.028
   148    3   0.2928   0.0000  -0.0957  0.00957   6.0806E-04 -2.9732E-04  6.7686E-04  -26.057
   149    3   0.2928   0.0000  -0.0861  0.00957   6.2204E-04 -3.0465E-04  6.9263E-04  -26.094
   150    3   0.2928   0.0000  -0.0766  0.00957   6.3355E-04 -3.1089E-04  7.0572E-04  -26.138
   151    3   0.2928   0.0000  -0.0670  0.00957   6.4250E-04 -3.1602E-04  7.1601E-04  -26.190
   152    3   0.2928   0.0000  -0.0574  0.00957   6.4880E-04 -3.1999E-04  7.2342E-04  -26.252
   153    3   0.2928   0.0000  -0.0479  0.00957   6.5232E-04 -3.2276E-04  7.2780E-04  -26.326
   154    3   0.2928   0.0000  -0.0383  0.00957   6.5288E-04 -3.2428E-04  7.2898E-04  -26.413
   155    3   0.2928   0.0000  -0.0287  0.00957   6.5019E-04 -3.2445E-04  7.2665E-04  -26.519
   156    3   0.2928   0.0000  -0.0191  0.00957   6.4378E-04 -3.2310E-04  7.2031E-04  -26.652
   157    3   0.2928   0.0000  -0.0096  0.00957   6.3060E-04 -3.1926E-04  7.0682E-04  -26.852
   158    3   0.2928   0.0000   0.0000  0.00957   6.0561E-04 -3.1127E-04  6.8092E-04  -27.202
   159    3   0.2928   0.0000   0.0096  0.00957   6.3060E-04 -3.1926E-04  7.0682E-04  -26.852
   160    3   0.2928   0.0000   0.0191  0.00957   6.4378E-04 -3.2310E-04  7.2031E-04  -26.652
   161    3   0.2928   0.0000   0.0287  0.00957   6.5019E-04 -3.2445E-04  7.2665E-04  -26.519
   162    3   0.2928   0.0000   0.0383  0.00957   6.5288E-04 -3.2428E-04  7.2898E-04  -26.413
   163    3   0.2928   0.0000   0.0479  0.00957   6.5232E-04 -3.2276E-04  7.2780E-04  -26.326
   164    3   0.2928   0.0000   0.0574  0.00957   6.4880E-04 -3.1999E-04  7.2342E-04  -26.253
   165    3   0.2928   0.0000   0.0670  0.00957   6.4250E-04 -3.1602E-04  7.1601E-04  -26.190
   166    3   0.2928   0.0000   0.0766  0.00957   6.3355E-04 -3.1089E-04  7.0572E-04  -26.138
   167    3   0.2928   0.0000   0.0861  0.00957   6.2204E-04 -3.0465E-04  6.9263E-04  -26.094
   168    3   0.2928   0.0000   0.0957  0.00957   6.0806E-04 -2.9732E-04  6.7686E-04  -26.057
   169    3   0.2928   0.0000   0.1053  0.00957   5.9170E-04 -2.8895E-04  6.5848E-04  -26.028
   170    3   0.2928   0.0000   0.1149  0.00957   5.7304E-04 -2.7954E-04  6.3759E-04  -26.004
   171    3   0.2928   0.0000   0.1244  0.00957   5.5217E-04 -2.6915E-04  6.1427E-04  -25.986
   172    3   0.2928   0.0000   0.1340  0.00957   5.2917E-04 -2.5780E-04  5.8863E-04  -25.974
   173    3   0.2928   0.0000   0.1436  0.00957   5.0413E-04 -2.4552E-04  5.6074E-04  -25.967
   174    3   0.2928   0.0000   0.1531  0.00957   4.7714E-04 -2.3234E-04  5.3070E-04  -25.964
   175    3   0.2928   0.0000   0.1627  0.00957   4.4828E-04 -2.1830E-04  4.9860E-04  -25.965
   176    3   0.2928   0.0000   0.1723  0.00957   4.1763E-04 -2.0342E-04  4.6454E-04  -25.970
   177    3   0.2928   0.0000   0.1819  0.00957   3.8528E-04 -1.8774E-04  4.2859E-04  -25.979
   178    3   0.2928   0.0000   0.1914  0.00957   3.5129E-04 -1.7127E-04  3.9081E-04  -25.991
   179    3   0.2928   0.0000   0.2010  0.00957   3.1570E-04 -1.5402E-04  3.5127E-04  -26.006
   180    3   0.2928   0.0000   0.2106  0.00957   2.7854E-04 -1.3599E-04  3.0997E-04  -26.023
   181    3   0.2928   0.0000   0.2201  0.00957   2.3976E-04 -1.1716E-04  2.6686E-04  -26.043
   182    3   0.2928   0.0000   0.2297  0.00957   1.9923E-04 -9.7443E-05  2.2178E-04  -26.063
   183    3   0.2928   0.0000   0.2393  0.00957   1.5657E-04 -7.6655E-05  1.7433E-04  -26.085
   184    3   0.2928   0.0000   0.2488  0.00957   1.1099E-04 -5.4395E-05  1.2361E-04  -26.108
   185    3   0.2928   0.0000   0.2584  0.00957   5.7564E-05 -2.8239E-05  6.4118E-05  -26.131
   186    4   0.4811   0.0000   0.2439  0.01016   1.7818E-04  3.9070E-05  1.8241E-04   12.368
   187    4   0.4811   0.0000   0.2337  0.01016   3.4093E-04  7.6499E-05  3.4941E-04   12.647
   188    4   0.4811   0.0000   0.2236  0.01016   4.7891E-04  1.0987E-04  4.9136E-04   12.921
   189    4   0.4811   0.0000   0.2134  0.01016   6.0727E-04  1.4230E-04  6.2372E-04   13.188
   190    4   0.4811   0.0000   0.2033  0.01016   7.2852E-04  1.7424E-04  7.4907E-04   13.451
   191    4   0.4811   0.0000   0.1931  0.01016   8.4379E-04  2.0583E-04  8.6853E-04   13.709
   192    4   0.4811   0.0000   0.1829  0.01016   9.5351E-04  2.3709E-04  9.8254E-04   13.963
   193    4   0.4811   0.0000   0.1728  0.01016   1.0578E-03  2.6795E-04  1.0912E-03   14.214
   194    4   0.4811   0.0000   0.1626  0.01016   1.1567E-03  2.9830E-04  1.1945E-03   14.461
   195    4   0.4811   0.0000   0.1524  0.01016   1.2499E-03  3.2804E-04  1.2923E-03   14.705
   196    4   0.4811   0.0000   0.1423  0.01016   1.3375E-03  3.5703E-04  1.3843E-03   14.946
[...]
   387    9   1.4637   0.0000  -0.1437  0.01597   6.7736E-03 -9.8506E-04  6.8449E-03   -8.274
   388    9   1.4637   0.0000  -0.1278  0.01597   7.7626E-03 -1.0733E-03  7.8365E-03   -7.872
   389    9   1.4637   0.0000  -0.1118  0.01597   8.6589E-03 -1.1351E-03  8.7330E-03   -7.469
   390    9   1.4637   0.0000  -0.0958  0.01597   9.4599E-03 -1.1718E-03  9.5322E-03   -7.061
   391    9   1.4637   0.0000  -0.0798  0.01597   1.0162E-02 -1.1838E-03  1.0231E-02   -6.644
   392    9   1.4637   0.0000  -0.0639  0.01597   1.0763E-02 -1.1710E-03  1.0827E-02   -6.209
   393    9   1.4637   0.0000  -0.0479  0.01597   1.1261E-02 -1.1324E-03  1.1318E-02   -5.742
   394    9   1.4637   0.0000  -0.0319  0.01597   1.1657E-02 -1.0650E-03  1.1706E-02   -5.220
   395    9   1.4637   0.0000  -0.0160  0.01597   1.1973E-02 -9.4384E-04  1.2010E-02   -4.507
   396    9   1.4637   0.0000   0.0000  0.01597   1.2248E-02 -7.2742E-04  1.2269E-02   -3.399
   397    9   1.4637   0.0000   0.0160  0.01597   1.1973E-02 -9.4384E-04  1.2010E-02   -4.507
   398    9   1.4637   0.0000   0.0319  0.01597   1.1657E-02 -1.0650E-03  1.1706E-02   -5.220
   399    9   1.4637   0.0000   0.0479  0.01597   1.1261E-02 -1.1324E-03  1.1318E-02   -5.742
   400    9   1.4637   0.0000   0.0639  0.01597   1.0763E-02 -1.1710E-03  1.0827E-02   -6.209
   401    9   1.4637   0.0000   0.0798  0.01597   1.0162E-02 -1.1838E-03  1.0231E-02   -6.644
   402    9   1.4637   0.0000   0.0958  0.01597   9.4599E-03 -1.1718E-03  9.5322E-03   -7.061
   403    9   1.4637   0.0000   0.1118  0.01597   8.6589E-03 -1.1352E-03  8.7330E-03   -7.469
   404    9   1.4637   0.0000   0.1278  0.01597   7.7626E-03 -1.0733E-03  7.8365E-03   -7.872
   405    9   1.4637   0.0000   0.1437  0.01597   6.7736E-03 -9.8507E-04  6.8449E-03   -8.274
   406    9   1.4637   0.0000   0.1597  0.01597   5.6925E-03 -8.6887E-04  5.7585E-03   -8.678
   407    9   1.4637   0.0000   0.1757  0.01597   4.5142E-03 -7.2189E-04  4.5715E-03   -9.086
   408    9   1.4637   0.0000   0.1916  0.01597   3.2212E-03 -5.3906E-04  3.2660E-03   -9.500
   409    9   1.4637   0.0000   0.2076  0.01597   1.6764E-03 -2.9305E-04  1.7018E-03   -9.915
   410   10   1.6179   0.0000   0.1958  0.01632   1.1474E-04  1.9411E-03  1.9445E-03   86.617
   411   10   1.6179   0.0000   0.1795  0.01632   1.6825E-04  3.6923E-03  3.6961E-03   87.391
   412   10   1.6179   0.0000   0.1632  0.01632   1.6449E-04  5.1432E-03  5.1458E-03   88.168
   413   10   1.6179   0.0000   0.1468  0.01632   1.1960E-04  6.4526E-03  6.4537E-03   88.938
   414   10   1.6179   0.0000   0.1305  0.01632   3.8863E-05  7.6418E-03  7.6419E-03   89.709
   415   10   1.6179   0.0000   0.1142  0.01632  -7.3644E-05  8.7176E-03  8.7179E-03   90.484
   416   10   1.6179   0.0000   0.0979  0.01632  -2.1470E-04  9.6802E-03  9.6825E-03   91.271
   417   10   1.6179   0.0000   0.0816  0.01632  -3.8199E-04  1.0528E-02  1.0535E-02   92.078
   418   10   1.6179   0.0000   0.0653  0.01632  -5.7463E-04  1.1258E-02  1.1273E-02   92.922
   419   10   1.6179   0.0000   0.0489  0.01632  -7.9464E-04  1.1872E-02  1.1898E-02   93.829
   420   10   1.6179   0.0000   0.0326  0.01632  -1.0484E-03  1.2369E-02  1.2414E-02   94.845
   421   10   1.6179   0.0000   0.0163  0.01632  -1.3966E-03  1.2787E-02  1.2863E-02   96.233
   422   10   1.6179   0.0000   0.0000  0.01632  -1.9488E-03  1.3191E-02  1.3335E-02   98.404
   423   10   1.6179   0.0000  -0.0163  0.01632  -1.3966E-03  1.2787E-02  1.2863E-02   96.233
   424   10   1.6179   0.0000  -0.0326  0.01632  -1.0484E-03  1.2369E-02  1.2414E-02   94.845
   425   10   1.6179   0.0000  -0.0489  0.01632  -7.9463E-04  1.1872E-02  1.1898E-02   93.829
   426   10   1.6179   0.0000  -0.0653  0.01632  -5.7462E-04  1.1258E-02  1.1273E-02   92.922
   427   10   1.6179   0.0000  -0.0816  0.01632  -3.8198E-04  1.0528E-02  1.0535E-02   92.078
   428   10   1.6179   0.0000  -0.0979  0.01632  -2.1469E-04  9.6802E-03  9.6825E-03   91.271
   429   10   1.6179   0.0000  -0.1142  0.01632  -7.3638E-05  8.7176E-03  8.7179E-03   90.484
   430   10   1.6179   0.0000  -0.1305  0.01632   3.8869E-05  7.6418E-03  7.6419E-03   89.709
   431   10   1.6179   0.0000  -0.1468  0.01632   1.1961E-04  6.4526E-03  6.4537E-03   88.938
   432   10   1.6179   0.0000  -0.1632  0.01632   1.6450E-04  5.1432E-03  5.1458E-03   88.168
   433   10   1.6179   0.0000  -0.1795  0.01632   1.6826E-04  3.6923E-03  3.6961E-03   87.391
   434   10   1.6179   0.0000  -0.1958  0.01632   1.1474E-04  1.9411E-03  1.9445E-03   86.617
   435   11   1.7639   0.0000  -0.1837  0.01837  -3.8266E-03 -3.3759E-04  3.8414E-03 -174.958
   436   11   1.7639   0.0000  -0.1654  0.01837  -7.3588E-03 -6.9038E-04  7.3912E-03 -174.640
   437   11   1.7639   0.0000  -0.1470  0.01837  -1.0254E-02 -1.0204E-03  1.0305E-02 -174.317
   438   11   1.7639   0.0000  -0.1286  0.01837  -1.2829E-02 -1.3497E-03  1.2899E-02 -173.994
   439   11   1.7639   0.0000  -0.1102  0.01837  -1.5118E-02 -1.6778E-03  1.5211E-02 -173.667
   440   11   1.7639   0.0000  -0.0919  0.01837  -1.7133E-02 -2.0022E-03  1.7250E-02 -173.335
   441   11   1.7639   0.0000  -0.0735  0.01837  -1.8874E-02 -2.3208E-03  1.9016E-02 -172.990
   442   11   1.7639   0.0000  -0.0551  0.01837  -2.0340E-02 -2.6333E-03  2.0510E-02 -172.623
   443   11   1.7639   0.0000  -0.0367  0.01837  -2.1535E-02 -2.9434E-03  2.1736E-02 -172.217
   444   11   1.7639   0.0000  -0.0184  0.01837  -2.2541E-02 -3.2992E-03  2.2781E-02 -171.673
   445   11   1.7639   0.0000   0.0000  0.01837  -2.3484E-02 -3.7767E-03  2.3786E-02 -170.864
   446   11   1.7639   0.0000   0.0184  0.01837  -2.2541E-02 -3.2992E-03  2.2781E-02 -171.673
   447   11   1.7639   0.0000   0.0368  0.01837  -2.1535E-02 -2.9434E-03  2.1736E-02 -172.217
   448   11   1.7639   0.0000   0.0551  0.01837  -2.0340E-02 -2.6333E-03  2.0510E-02 -172.623
   449   11   1.7639   0.0000   0.0735  0.01837  -1.8874E-02 -2.3208E-03  1.9016E-02 -172.990
   450   11   1.7639   0.0000   0.0919  0.01837  -1.7133E-02 -2.0022E-03  1.7250E-02 -173.335
   451   11   1.7639   0.0000   0.1102  0.01837  -1.5118E-02 -1.6778E-03  1.5211E-02 -173.667
   452   11   1.7639   0.0000   0.1286  0.01837  -1.2829E-02 -1.3497E-03  1.2899E-02 -173.994
   453   11   1.7639   0.0000   0.1470  0.01837  -1.0254E-02 -1.0204E-03  1.0305E-02 -174.317
   454   11   1.7639   0.0000   0.1654  0.01837  -7.3588E-03 -6.9039E-04  7.3912E-03 -174.640
   455   11   1.7639   0.0000   0.1837  0.01837  -3.8266E-03 -3.3759E-04  3.8414E-03 -174.958
   456   12   1.9019   0.0000   0.1729  0.01921   1.1674E-03 -2.9967E-03  3.2160E-03  -68.716
   457   12   1.9019   0.0000   0.1537  0.01921   2.2701E-03 -5.7273E-03  6.1608E-03  -68.378
   458   12   1.9019   0.0000   0.1345  0.01921   3.2060E-03 -7.9444E-03  8.5669E-03  -68.023
   459   12   1.9019   0.0000   0.1153  0.01921   4.0663E-03 -9.8952E-03  1.0698E-02  -67.661
   460   12   1.9019   0.0000   0.0961  0.01921   4.8590E-03 -1.1609E-02  1.2585E-02  -67.288
   461   12   1.9019   0.0000   0.0768  0.01921   5.5851E-03 -1.3095E-02  1.4237E-02  -66.902
   462   12   1.9019   0.0000   0.0576  0.01921   6.2454E-03 -1.4359E-02  1.5658E-02  -66.493
   463   12   1.9019   0.0000   0.0384  0.01921   6.8445E-03 -1.5406E-02  1.6858E-02  -66.046
   464   12   1.9019   0.0000   0.0192  0.01921   7.4526E-03 -1.6318E-02  1.7939E-02  -65.453
   465   12   1.9019   0.0000   0.0000  0.01921   8.1847E-03 -1.7226E-02  1.9072E-02  -64.586
   466   12   1.9019   0.0000  -0.0192  0.01921   7.4526E-03 -1.6318E-02  1.7939E-02  -65.453
   467   12   1.9019   0.0000  -0.0384  0.01921   6.8445E-03 -1.5406E-02  1.6858E-02  -66.046
   468   12   1.9019   0.0000  -0.0576  0.01921   6.2453E-03 -1.4359E-02  1.5658E-02  -66.493
   469   12   1.9019   0.0000  -0.0768  0.01921   5.5851E-03 -1.3095E-02  1.4237E-02  -66.902
   470   12   1.9019   0.0000  -0.0961  0.01921   4.8590E-03 -1.1609E-02  1.2585E-02  -67.288
   471   12   1.9019   0.0000  -0.1153  0.01921   4.0663E-03 -9.8952E-03  1.0698E-02  -67.661
   472   12   1.9019   0.0000  -0.1345  0.01921   3.2060E-03 -7.9444E-03  8.5669E-03  -68.023
   473   12   1.9019   0.0000  -0.1537  0.01921   2.2701E-03 -5.7273E-03  6.1608E-03  -68.378
   474   12   1.9019   0.0000  -0.1729  0.01921   1.1674E-03 -2.9967E-03  3.2160E-03  -68.716
   475   13   2.0325   0.0000  -0.1625  0.02031   4.1982E-03  1.1798E-03  4.3608E-03   15.697
   476   13   2.0325   0.0000  -0.1422  0.02031   8.0321E-03  2.1994E-03  8.3278E-03   15.314
   477   13   2.0325   0.0000  -0.1219  0.02031   1.1150E-02  2.9809E-03  1.1542E-02   14.967
   478   13   2.0325   0.0000  -0.1016  0.02031   1.3887E-02  3.6347E-03  1.4355E-02   14.667
   479   13   2.0325   0.0000  -0.0813  0.02031   1.6275E-02  4.1821E-03  1.6804E-02   14.411
   480   13   2.0325   0.0000  -0.0609  0.02031   1.8328E-02  4.6361E-03  1.8906E-02   14.195
   481   13   2.0325   0.0000  -0.0406  0.02031   2.0057E-02  5.0069E-03  2.0673E-02   14.016
   482   13   2.0325   0.0000  -0.0203  0.02031   2.1605E-02  5.3286E-03  2.2252E-02   13.855
   483   13   2.0325   0.0000   0.0000  0.02031   2.3208E-02  5.6518E-03  2.3887E-02   13.686
   484   13   2.0325   0.0000   0.0203  0.02031   2.1605E-02  5.3286E-03  2.2252E-02   13.855
   485   13   2.0325   0.0000   0.0406  0.02031   2.0057E-02  5.0069E-03  2.0673E-02   14.016
   486   13   2.0325   0.0000   0.0609  0.02031   1.8328E-02  4.6361E-03  1.8906E-02   14.195
   487   13   2.0325   0.0000   0.0813  0.02031   1.6275E-02  4.1821E-03  1.6804E-02   14.411
   488   13   2.0325   0.0000   0.1016  0.02031   1.3887E-02  3.6347E-03  1.4355E-02   14.667
   489   13   2.0325   0.0000   0.1219  0.02031   1.1150E-02  2.9809E-03  1.1542E-02   14.967
   490   13   2.0325   0.0000   0.1422  0.02031   8.0321E-03  2.1994E-03  8.3278E-03   15.314
   491   13   2.0325   0.0000   0.1625  0.02031   4.1982E-03  1.1798E-03  4.3608E-03   15.697
   492   14  -0.2028   0.0000   0.0000  0.00979   1.1712E-05 -5.9910E-05  6.1044E-05  -78.938
   493   15   2.1659   0.0000   0.0000  0.03416  -1.0970E-04  8.8752E-04  8.9428E-04   97.046



                                        - - - POWER BUDGET - - -

                                           INPUT POWER   = 1.3862E-02 WATTS
                                           RADIATED POWER= 1.3862E-02 WATTS
                                           STRUCTURE LOSS= 0.0000E+00 WATTS
                                           NETWORK LOSS  = 2.9490E-17 WATTS
                                           EFFICIENCY    = 100.00 PERCENT



                                                - - - RADIATION PATTERNS - - -

  - - ANGLES - -           - POWER GAINS -       - - - POLARIZATION - - -    - - - E(THETA) - - -    - - - E(PHI) - - -
  THETA     PHI        VERT.   HOR.    TOTAL      AXIAL     TILT   SENSE     MAGNITUDE    PHASE      MAGNITUDE    PHASE 
 DEGREES  DEGREES       DB      DB      DB        RATIO     DEG.              VOLTS/M    DEGREES      VOLTS/M    DEGREES
 -180.00     0.00    -999.99 -999.99 -999.99    0.00000     0.00            3.67432E-12   167.82    0.00000E+00     0.00
 -175.00     0.00     -30.11 -999.99  -30.11    0.00000     0.00  LINEAR    2.84735E-02   -82.17    0.00000E+00     0.00
 -170.00     0.00     -24.68 -999.99  -24.68    0.00000     0.00  LINEAR    5.32086E-02  -153.32    0.00000E+00     0.00
 -165.00     0.00     -21.36 -999.99  -21.36    0.00000     0.00  LINEAR    7.79779E-02   137.76    0.00000E+00     0.00
 -160.00     0.00     -19.12 -999.99  -19.12    0.00000     0.00  LINEAR    1.00913E-01    73.00    0.00000E+00     0.00
 -155.00     0.00     -17.85 -999.99  -17.85    0.00000     0.00  LINEAR    1.16769E-01    10.55    0.00000E+00     0.00
 -150.00     0.00     -17.17 -999.99  -17.17    0.00000     0.00  LINEAR    1.26266E-01   -52.42    0.00000E+00     0.00
 -145.00     0.00     -16.36 -999.99  -16.36    0.00000     0.00  LINEAR    1.38615E-01  -115.67    0.00000E+00     0.00
 -140.00     0.00     -15.12 -999.99  -15.12    0.00000     0.00  LINEAR    1.59966E-01  -174.50    0.00000E+00     0.00
 -135.00     0.00     -13.93 -999.99  -13.93    0.00000     0.00  LINEAR    1.83409E-01   134.24    0.00000E+00     0.00
 -130.00     0.00     -13.29 -999.99  -13.29    0.00000     0.00  LINEAR    1.97372E-01    89.43    0.00000E+00     0.00
 -125.00     0.00     -13.34 -999.99  -13.34    0.00000     0.00  LINEAR    1.96219E-01    48.46    0.00000E+00     0.00
 -120.00     0.00     -13.93 -999.99  -13.93    0.00000     0.00  LINEAR    1.83445E-01     8.78    0.00000E+00     0.00
 -115.00     0.00     -14.57 -999.99  -14.57    0.00000     0.00  LINEAR    1.70280E-01   -31.25    0.00000E+00     0.00
 -110.00     0.00     -14.62 -999.99  -14.62    0.00000     0.00  LINEAR    1.69369E-01   -69.88    0.00000E+00     0.00
 -105.00     0.00     -13.92 -999.99  -13.92    0.00000     0.00  LINEAR    1.83663E-01  -101.85    0.00000E+00     0.00
 -100.00     0.00     -12.98 -999.99  -12.98    0.00000     0.00  LINEAR    2.04483E-01  -123.96    0.00000E+00     0.00
  -95.00     0.00     -12.30 -999.99  -12.30    0.00000     0.00  LINEAR    2.21313E-01  -136.53    0.00000E+00     0.00
  -90.00     0.00     -12.05 -999.99  -12.05    0.00000     0.00  LINEAR    2.27618E-01  -140.58    0.00000E+00     0.00
  -85.00     0.00     -12.30 -999.99  -12.30    0.00000     0.00  LINEAR    2.21314E-01  -136.53    0.00000E+00     0.00
  -80.00     0.00     -12.98 -999.99  -12.98    0.00000     0.00  LINEAR    2.04484E-01  -123.96    0.00000E+00     0.00
  -75.00     0.00     -13.92 -999.99  -13.92    0.00000     0.00  LINEAR    1.83665E-01  -101.84    0.00000E+00     0.00
  -70.00     0.00     -14.62 -999.99  -14.62    0.00000     0.00  LINEAR    1.69372E-01   -69.88    0.00000E+00     0.00
  -65.00     0.00     -14.57 -999.99  -14.57    0.00000     0.00  LINEAR    1.70284E-01   -31.25    0.00000E+00     0.00
  -60.00     0.00     -13.93 -999.99  -13.93    0.00000     0.00  LINEAR    1.83449E-01     8.78    0.00000E+00     0.00
  -55.00     0.00     -13.34 -999.99  -13.34    0.00000     0.00  LINEAR    1.96222E-01    48.46    0.00000E+00     0.00
  -50.00     0.00     -13.29 -999.99  -13.29    0.00000     0.00  LINEAR    1.97374E-01    89.43    0.00000E+00     0.00
  -45.00     0.00     -13.93 -999.99  -13.93    0.00000     0.00  LINEAR    1.83410E-01   134.24    0.00000E+00     0.00
  -40.00     0.00     -15.12 -999.99  -15.12    0.00000     0.00  LINEAR    1.59966E-01  -174.50    0.00000E+00     0.00
  -35.00     0.00     -16.36 -999.99  -16.36    0.00000     0.00  LINEAR    1.38615E-01  -115.67    0.00000E+00     0.00
  -30.00     0.00     -17.17 -999.99  -17.17    0.00000     0.00  LINEAR    1.26266E-01   -52.42    0.00000E+00     0.00
  -25.00     0.00     -17.85 -999.99  -17.85    0.00000     0.00  LINEAR    1.16768E-01    10.55    0.00000E+00     0.00
  -20.00     0.00     -19.12 -999.99  -19.12    0.00000     0.00  LINEAR    1.00912E-01    73.01    0.00000E+00     0.00
  -15.00     0.00     -21.36 -999.99  -21.36    0.00000     0.00  LINEAR    7.79776E-02   137.76    0.00000E+00     0.00
  -10.00     0.00     -24.68 -999.99  -24.68    0.00000     0.00  LINEAR    5.32087E-02  -153.32    0.00000E+00     0.00
   -5.00     0.00     -30.11 -999.99  -30.11    0.00000     0.00  LINEAR    2.84737E-02   -82.17    0.00000E+00     0.00
    0.00     0.00    -999.99 -999.99 -999.99    0.00000     0.00            0.00000E+00     0.00    0.00000E+00     0.00
    5.00     0.00     -28.54 -999.99  -28.54    0.00000     0.00  LINEAR    3.41129E-02  -123.43    0.00000E+00     0.00
   10.00     0.00     -21.94 -999.99  -21.94    0.00000     0.00  LINEAR    7.29078E-02   -53.77    0.00000E+00     0.00
   15.00     0.00     -17.55 -999.99  -17.55    0.00000     0.00  LINEAR    1.20849E-01    17.08    0.00000E+00     0.00
   20.00     0.00     -13.63 -999.99  -13.63    0.00000     0.00  LINEAR    1.89874E-01    85.94    0.00000E+00     0.00
   25.00     0.00      -9.97 -999.99   -9.97    0.00000     0.00  LINEAR    2.89340E-01   149.91    0.00000E+00     0.00
   30.00     0.00      -6.70 -999.99   -6.70    0.00000     0.00  LINEAR    4.21678E-01  -151.20    0.00000E+00     0.00
   35.00     0.00      -3.81 -999.99   -3.81    0.00000     0.00  LINEAR    5.88272E-01   -96.73    0.00000E+00     0.00
   40.00     0.00      -1.22 -999.99   -1.22    0.00000     0.00  LINEAR    7.92492E-01   -46.55    0.00000E+00     0.00
   45.00     0.00       1.11 -999.99    1.11    0.00000     0.00  LINEAR    1.03574E+00    -0.92    0.00000E+00     0.00
   50.00     0.00       3.16 -999.99    3.16    0.00000     0.00  LINEAR    1.31239E+00    39.89    0.00000E+00     0.00
   55.00     0.00       4.94 -999.99    4.94    0.00000     0.00  LINEAR    1.60915E+00    75.83    0.00000E+00     0.00
   60.00     0.00       6.42 -999.99    6.42    0.00000     0.00  LINEAR    1.90844E+00   106.96    0.00000E+00     0.00
   65.00     0.00       7.62 -999.99    7.62    0.00000     0.00  LINEAR    2.19242E+00   133.34    0.00000E+00     0.00
   70.00     0.00       8.57 -999.99    8.57    0.00000     0.00  LINEAR    2.44545E+00   155.00    0.00000E+00     0.00
   75.00     0.00       9.28 -999.99    9.28    0.00000     0.00  LINEAR    2.65493E+00   171.91    0.00000E+00     0.00
   80.00     0.00       9.78 -999.99    9.78    0.00000     0.00  LINEAR    2.81131E+00  -175.96    0.00000E+00     0.00
   85.00     0.00      10.07 -999.99   10.07    0.00000     0.00  LINEAR    2.90783E+00  -168.66    0.00000E+00     0.00
   90.00     0.00      10.17 -999.99   10.17    0.00000     0.00  LINEAR    2.94046E+00  -166.22    0.00000E+00     0.00
   95.00     0.00      10.07 -999.99   10.07    0.00000     0.00  LINEAR    2.90783E+00  -168.66    0.00000E+00     0.00
  100.00     0.00       9.78 -999.99    9.78    0.00000     0.00  LINEAR    2.81131E+00  -175.96    0.00000E+00     0.00
  105.00     0.00       9.28 -999.99    9.28    0.00000     0.00  LINEAR    2.65493E+00   171.91    0.00000E+00     0.00
  110.00     0.00       8.57 -999.99    8.57    0.00000     0.00  LINEAR    2.44544E+00   155.00    0.00000E+00     0.00
  115.00     0.00       7.62 -999.99    7.62    0.00000     0.00  LINEAR    2.19242E+00   133.34    0.00000E+00     0.00
  120.00     0.00       6.42 -999.99    6.42    0.00000     0.00  LINEAR    1.90844E+00   106.96    0.00000E+00     0.00
  125.00     0.00       4.94 -999.99    4.94    0.00000     0.00  LINEAR    1.60914E+00    75.83    0.00000E+00     0.00
  130.00     0.00       3.16 -999.99    3.16    0.00000     0.00  LINEAR    1.31239E+00    39.89    0.00000E+00     0.00
  135.00     0.00       1.11 -999.99    1.11    0.00000     0.00  LINEAR    1.03574E+00    -0.92    0.00000E+00     0.00
  140.00     0.00      -1.22 -999.99   -1.22    0.00000     0.00  LINEAR    7.92490E-01   -46.55    0.00000E+00     0.00
  145.00     0.00      -3.81 -999.99   -3.81    0.00000     0.00  LINEAR    5.88270E-01   -96.73    0.00000E+00     0.00
  150.00     0.00      -6.70 -999.99   -6.70    0.00000     0.00  LINEAR    4.21676E-01  -151.20    0.00000E+00     0.00
  155.00     0.00      -9.97 -999.99   -9.97    0.00000     0.00  LINEAR    2.89337E-01   149.91    0.00000E+00     0.00
  160.00     0.00     -13.63 -999.99  -13.63    0.00000     0.00  LINEAR    1.89872E-01    85.94    0.00000E+00     0.00
  165.00     0.00     -17.55 -999.99  -17.55    0.00000     0.00  LINEAR    1.20847E-01    17.08    0.00000E+00     0.00
  170.00     0.00     -21.94 -999.99  -21.94    0.00000     0.00  LINEAR    7.29065E-02   -53.77    0.00000E+00     0.00
  175.00     0.00     -28.54 -999.99  -28.54    0.00000     0.00  LINEAR    3.41123E-02  -123.43    0.00000E+00     0.00
  180.00     0.00    -999.99 -999.99 -999.99    0.00000     0.00            3.67432E-12   -12.18    0.00000E+00     0.00
 ***** DATA CARD NO. 22   EN   0    73     1  1000 -1.80000E+02  0.00000E+00  5.00000E+00  0.00000E+00  0.00000E+00  0.00000E+00

 RUN TIME =    13.844
