CE
GW	1	19	-0.1	-0.063559	0	-0.1	0.0635593	0	2.5e-3
GW	2	17	-0.054275	-0.060381	0	-0.054275	0.0603814	0	2.5e-3
GW	3	17	-0.010837	-0.057362	0	-0.010837	0.0573623	0	2.5e-3
GW	4	15	0.0304294	-0.054494	0	0.0304294	0.0544942	0	2.5e-3
GW	5	15	0.0696325	-0.051769	0	0.0696325	0.0517695	0	2.5e-3
GW	6	15	0.1068754	-0.049181	0	0.1068754	0.049181	0	2.5e-3
GW	7	13	0.1422562	-0.046722	0	0.1422562	0.0467219	0	2.5e-3
GW	8	13	0.175868	-0.044386	0	0.175868	0.0443858	0	2.5e-3
GW	9	13	0.2077992	-0.042167	0	0.2077992	0.0421666	0	2.5e-3
GW	10	11	0.2381338	-0.040058	0	0.2381338	0.0400582	0	2.5e-3
GW	11	11	0.2669517	-0.038055	0	0.2669517	0.0380553	0	2.5e-3
GW	12	11	0.2943287	-0.036153	0	0.2943287	0.0361525	0	2.5e-3
GW	13	9	0.3203368	-0.034345	0	0.3203368	0.0343449	0	2.5e-3
GW	14	1	-0.13178	5.e-3	0	-0.13178	-5.e-3	0	2.5e-3
GW	15	1	0.4203368	-5.e-3	0	0.4203368	5.e-3	0	2.5e-3
GE	0
EK
TL	15	1	13	5	50	0
TL	14	1	1	10	-50	0
TL	1	10	2	9	-50	0
TL	2	9	3	9	-50	0
TL	3	9	4	8	-50	0
TL	4	8	5	8	-50	0
TL	5	8	6	8	-50	0
TL	6	8	7	7	-50	0
TL	7	7	8	7	-50	0
TL	8	7	9	7	-50	0
TL	9	7	10	6	-50	0
TL	10	6	11	6	-50	0
TL	11	6	12	6	-50	0
TL	12	6	13	5	-50	0
EX	0	15	1	0	1	0
GN	-1
FR	0	1	0	0	1400	0
