CE
GW	1	5	-0.6	3.3452e-3	0	-0.6	0.0635593	0	5.e-3
GW	2	5	-0.6	-3.345e-3	0	-0.6	-0.063559	0	5.e-3
GW	3	5	-0.553287	3.3452e-3	0	-0.553287	0.0613983	0	5.e-3
GW	4	5	-0.553287	-3.345e-3	0	-0.553287	-0.061398	0	5.e-3
GW	5	5	-0.508162	3.3452e-3	0	-0.508162	0.0593108	0	5.e-3
GW	6	5	-0.508162	-3.345e-3	0	-0.508162	-0.059311	0	5.e-3
GW	7	5	-0.464572	3.3452e-3	0	-0.464572	0.0572942	0	5.e-3
GW	8	5	-0.464572	-3.345e-3	0	-0.464572	-0.057294	0	5.e-3
GW	9	5	-0.422463	3.3452e-3	0	-0.422463	0.0553462	0	5.e-3
GW	10	5	-0.422463	-3.345e-3	0	-0.422463	-0.055346	0	5.e-3
GW	11	5	-0.381786	3.3452e-3	0	-0.381786	0.0534644	0	5.e-3
GW	12	5	-0.381786	-3.345e-3	0	-0.381786	-0.053464	0	5.e-3
GW	13	5	-0.342493	3.3452e-3	0	-0.342493	0.0516466	0	5.e-3
GW	14	5	-0.342493	-3.345e-3	0	-0.342493	-0.051647	0	5.e-3
GW	15	5	-0.304535	3.3452e-3	0	-0.304535	0.0498906	0	5.e-3
GW	16	5	-0.304535	-3.345e-3	0	-0.304535	-0.049891	0	5.e-3
GW	17	5	-0.267867	3.3452e-3	0	-0.267867	0.0481944	0	5.e-3
GW	18	5	-0.267867	-3.345e-3	0	-0.267867	-0.048194	0	5.e-3
GW	19	5	-0.232447	3.3452e-3	0	-0.232447	0.0465558	0	5.e-3
GW	20	5	-0.232447	-3.345e-3	0	-0.232447	-0.046556	0	5.e-3
GW	21	5	-0.198231	3.3452e-3	0	-0.198231	0.0449729	0	5.e-3
GW	22	5	-0.198231	-3.345e-3	0	-0.198231	-0.044973	0	5.e-3
GW	23	5	-0.165178	3.3452e-3	0	-0.165178	0.0434438	0	5.e-3
GW	24	5	-0.165178	-3.345e-3	0	-0.165178	-0.043444	0	5.e-3
GW	25	5	-0.133249	3.3452e-3	0	-0.133249	0.0419667	0	5.e-3
GW	26	5	-0.133249	-3.345e-3	0	-0.133249	-0.041967	0	5.e-3
GW	27	5	-0.102405	3.3452e-3	0	-0.102405	0.0405398	0	5.e-3
GW	28	5	-0.102405	-3.345e-3	0	-0.102405	-0.04054	0	5.e-3
GW	29	5	-0.07261	3.3452e-3	0	-0.07261	0.0391615	0	5.e-3
GW	30	5	-0.07261	-3.345e-3	0	-0.07261	-0.039161	0	5.e-3
GW	31	5	-0.043829	3.3452e-3	0	-0.043829	0.03783	0	5.e-3
GW	32	5	-0.043829	-3.345e-3	0	-0.043829	-0.03783	0	5.e-3
GW	33	5	-0.016025	3.3452e-3	0	-0.016025	0.0365438	0	5.e-3
GW	34	5	-0.016025	-3.345e-3	0	-0.016025	-0.036544	0	5.e-3
GW	35	5	0.0108326	3.3452e-3	0	0.0108326	0.0353013	0	5.e-3
GW	36	5	0.0108326	-3.345e-3	0	0.0108326	-0.035301	0	5.e-3
GE	0
EK
TL	1	1	4	1	50	0	0	0	1E+99
TL	2	1	3	1	50	0	0	0	1E+99
TL	3	1	6	1	50	0	0	0	1E+99
TL	4	1	5	1	50	0	0	0	1E+99
TL	5	1	8	1	50	0	0	0	1E+99
TL	6	1	7	1	50	0	0	0	1E+99
TL	7	1	10	1	50	0	0	0	1E+99
TL	8	1	9	1	50	0	0	0	1E+99
TL	9	1	12	1	50	0	0	0	1E+99
TL	10	1	11	1	50	0	0	0	1E+99
TL	11	1	14	1	50	0	0	0	1E+99
TL	12	1	13	1	50	0	0	0	1E+99
TL	13	1	16	1	50	0	0	0	1E+99
TL	14	1	15	1	50	0	0	0	1E+99
TL	15	1	18	1	50	0	0	0	1E+99
TL	16	1	17	1	50	0	0	0	1E+99
TL	17	1	20	1	50	0	0	0	1E+99
TL	18	1	19	1	50	0	0	0	1E+99
TL	19	1	22	1	50	0	0	0	1E+99
TL	20	1	21	1	50	0	0	0	1E+99
TL	21	1	24	1	50	0	0	0	1E+99
TL	22	1	23	1	50	0	0	0	1E+99
TL	23	1	26	1	50	0	0	0	1E+99
TL	24	1	25	1	50	0	0	0	1E+99
TL	25	1	28	1	50	0	0	0	1E+99
TL	26	1	27	1	50	0	0	0	1E+99
TL	27	1	30	1	50	0	0	0	1E+99
TL	28	1	29	1	50	0	0	0	1E+99
TL	29	1	32	1	50	0	0	0	1E+99
TL	30	1	31	1	50	0	0	0	1E+99
TL	31	1	34	1	-50	0	0	0	1E+99
TL	32	1	33	1	-50	0	0	0	1E+99
TL	33	1	36	1	-50	0	0	0	1E+99
TL	34	1	35	1	-50	0	0	0	1.e12
EX	0	36	3	0	5	0
GN	-1
FR	0	1	0	0	299.8	0
